
 ANSYS Mechanical Enterprise                       


 *------------------------------------------------------------------*
 |                                                                  |
 |   W E L C O M E   T O   T H E   A N S Y S (R)  P R O G R A M     |
 |                                                                  |
 *------------------------------------------------------------------*




 ***************************************************************
 *            ANSYS Release 18.2     LEGAL NOTICES             *
 ***************************************************************
 *                                                             *
 * Copyright 2017 SAS IP, Inc.  All rights reserved.           *
 * Unauthorized use, distribution or duplication is            *
 * prohibited.                                                 *
 *                                                             *
 * Ansys is a registered trademark of ANSYS, Inc. or its       *
 * subsidiaries in the United States or other countries.       *
 * See the ANSYS, Inc. online documentation or the ANSYS, Inc. *
 * documentation CD or online help for the complete Legal      *
 * Notice.                                                     *
 *                                                             *
 ***************************************************************
 *                                                             *
 * THIS ANSYS SOFTWARE PRODUCT AND PROGRAM DOCUMENTATION       *
 * INCLUDE TRADE SECRETS AND CONFIDENTIAL AND PROPRIETARY      *
 * PRODUCTS OF ANSYS, INC., ITS SUBSIDIARIES, OR LICENSORS.    *
 * The software products and documentation are furnished by    *
 * ANSYS, Inc. or its subsidiaries under a software license    *
 * agreement that contains provisions concerning               *
 * non-disclosure, copying, length and nature of use,          *
 * compliance with exporting laws, warranties, disclaimers,    *
 * limitations of liability, and remedies, and other           *
 * provisions.  The software products and documentation may be *
 * used, disclosed, transferred, or copied only in accordance  *
 * with the terms and conditions of that software license      *
 * agreement.                                                  *
 *                                                             *
 * ANSYS, Inc. is a UL registered                              *
 * ISO 9001:2008 company.                                      *
 *                                                             *
 ***************************************************************
 *                                                             *
 * This product is subject to U.S. laws governing export and   *
 * re-export.                                                  *
 *                                                             *
 * For U.S. Government users, except as specifically granted   *
 * by the ANSYS, Inc. software license agreement, the use,     *
 * duplication, or disclosure by the United States Government  *
 * is subject to restrictions stated in the ANSYS, Inc.        *
 * software license agreement and FAR 12.212 (for non-DOD      *
 * licenses).                                                  *
 *                                                             *
 ***************************************************************

 Release 18.2
     
 Point Releases and Patches installed:   
     
 ANSYS, Inc. Products Release 18.2   
 ANSYS Mechanical Products Release 18.2  
 ANSYS Autodyn Release 18.2  
 ANSYS LS-DYNA Release 18.2  
 Parasolid Release 18.2  
 SolidWorks Release 18.2 
 ANSYS, Inc. License Manager Release 18.2


          *****  ANSYS COMMAND LINE ARGUMENTS  *****
  BATCH MODE REQUESTED (-b)    = NOLIST
  INPUT FILE COPY MODE (-c)    = COPY
  DISTRIBUTED MEMORY PARALLEL REQUESTED
       2 PARALLEL PROCESSES REQUESTED WITH SINGLE THREAD PER PROCESS
    TOTAL OF     2 CORES REQUESTED
  MPI OPTION                   = INTELMPI
  INPUT FILE NAME              = C:\Users\zehir\Desktop\ANSYS Analysis\_ProjectScratch\ScrEF84\dummy.dat
  OUTPUT FILE NAME             = C:\Users\zehir\Desktop\ANSYS Analysis\_ProjectScratch\ScrEF84\solve.out
  START-UP FILE MODE           = NOREAD
  STOP FILE MODE               = NOREAD

 RELEASE= Release 18.2         BUILD= 18.2      UP20170726   VERSION=WINDOWS x64 
 CURRENT JOBNAME=file0  00:20:36  DEC 18, 2017 CP=      0.141


 PARAMETER _DS_PROGRESS =     999.0000000    

 /INPUT FILE= ds.dat  LINE=       0



 *** NOTE ***                            CP =       0.312   TIME= 00:20:36
 The /CONFIG,NOELDB command is not valid in a Distributed ANSYS          
 solution.  Command is ignored.                                          

 *GET  _WALLSTRT  FROM  ACTI  ITEM=TIME WALL  VALUE= 0.343333333    

 TITLE= 
 Mainv2--Static Structural (A5)                                                


 SET PARAMETER DIMENSIONS ON  _WB_PROJECTSCRATCH_DIR
  TYPE=STRI  DIMENSIONS=      248        1        1

 PARAMETER _WB_PROJECTSCRATCH_DIR(1) = C:\Users\zehir\Desktop\ANSYS Analysis\_ProjectScratch\ScrEF84\

 SET PARAMETER DIMENSIONS ON  _WB_SOLVERFILES_DIR
  TYPE=STRI  DIMENSIONS=      248        1        1

 PARAMETER _WB_SOLVERFILES_DIR(1) = C:\Users\zehir\Desktop\ANSYS Analysis\Mainv2_files\dp0\SYS\MECH\

 SET PARAMETER DIMENSIONS ON  _WB_USERFILES_DIR
  TYPE=STRI  DIMENSIONS=      248        1        1

 PARAMETER _WB_USERFILES_DIR(1) = C:\Users\zehir\Desktop\ANSYS Analysis\Mainv2_files\user_files\
 --- Data in consistent NMM units. See Solving Units in the help system for more

 MPA UNITS SPECIFIED FOR INTERNAL    
  LENGTH      = MILLIMETERS (mm)
  MASS        = TONNE (Mg)
  TIME        = SECONDS (sec)
  TEMPERATURE = CELSIUS (C)
  TOFFSET     = 273.0
  FORCE       = NEWTON (N)
  HEAT        = MILLIJOULES (mJ)

 INPUT  UNITS ARE ALSO SET TO MPA 

 *** ANSYS - ENGINEERING ANALYSIS SYSTEM  RELEASE Release 18.2     18.2     ***
 DISTRIBUTED ANSYS Mechanical Enterprise                       

 00000000  VERSION=WINDOWS x64   00:20:36  DEC 18, 2017 CP=      0.312

 Mainv2--Static Structural (A5)                                                



          ***** ANSYS ANALYSIS DEFINITION (PREP7) *****
 *********** Nodes for the whole assembly ***********
 *********** Elements for Body 1 "Shaft" ***********
 *********** Elements for Body 2 "Shaft" ***********
 *********** Elements for Body 3 "Link_Connector" ***********
 *********** Elements for Body 4 "Link_Connector" ***********
 *********** Elements for Body 5 "Mid_Link" ***********
 *********** Elements for Body 6 "Thumb" ***********
 *********** Elements for Body 7 "4 Fingers" ***********
 *********** Elements for Body 8 "Platform" ***********
 *********** Elements for Body 9 "Platform" ***********
 *********** Elements for Body 10 "623_PART3" ***********
 *********** Elements for Body 11 "623_PART3" ***********
 *********** Elements for Body 12 "623_PART3" ***********
 *********** Elements for Body 13 "623_PART3" ***********
 *********** Elements for Body 14 "623_PART3" ***********
 *********** Elements for Body 15 "623_PART3" ***********
 *********** Elements for Body 16 "623_PART3" ***********
 *********** Elements for Body 17 "623_PART3" ***********
 *********** Elements for Body 18 "623_PART3" ***********
 *********** Elements for Body 19 "623_PART3" ***********
 *********** Elements for Body 20 "623_PART3" ***********
 *********** Elements for Body 21 "623_PART3" ***********
 *********** Elements for Body 22 "623_PART3" ***********
 *********** Elements for Body 23 "623_PART3" ***********
 *********** Elements for Body 24 "623_PART3" ***********
 *********** Elements for Body 25 "623_PART3" ***********
 *********** Elements for Body 26 "623_PART3" ***********
 *********** Elements for Body 27 "623_PART3" ***********
 *********** Elements for Body 28 "623_PART3" ***********
 *********** Elements for Body 29 "623_PART3" ***********
 *********** Elements for Body 30 "623_PART3" ***********
 *********** Elements for Body 31 "623_PART3" ***********
 *********** Elements for Body 32 "623_PART3" ***********
 *********** Elements for Body 33 "623_PART3" ***********
 *********** Elements for Body 34 "623_PART3" ***********
 *********** Elements for Body 35 "623_PART3" ***********
 *********** Elements for Body 36 "623_PART3" ***********
 *********** Elements for Body 37 "623_PART3" ***********
 *********** Elements for Body 38 "623_PART3" ***********
 *********** Elements for Body 39 "623_PART3" ***********
 *********** Elements for Body 40 "623_PART3" ***********
 *********** Elements for Body 41 "623_PART3" ***********
 *********** Elements for Body 42 "623_PART3" ***********
 *********** Elements for Body 43 "623_PART3" ***********
 *********** Elements for Body 44 "623_PART3" ***********
 *********** Elements for Body 45 "623_PART2" ***********
 *********** Elements for Body 46 "623_PART2" ***********
 *********** Elements for Body 47 "623_PART2" ***********
 *********** Elements for Body 48 "623_PART2" ***********
 *********** Elements for Body 49 "623_PART2" ***********
 *********** Elements for Body 50 "623_PART1" ***********
 *********** Elements for Body 51 "623_PART1" ***********
 *********** Elements for Body 52 "623_PART1" ***********
 *********** Elements for Body 53 "623_PART1" ***********
 *********** Elements for Body 54 "623_PART1" ***********
 *********** Send User Defined Coordinate System(s) ***********
 *********** Set Reference Temperature ***********
 *********** Send Materials ***********
 *********** Create Contact "Contact Region" ***********
             Real Constant Set For Above Contact Is 56 & 55
 *********** Create Contact "Contact Region 2" ***********
             Real Constant Set For Above Contact Is 58 & 57
 *********** Create Contact "Contact Region 3" ***********
             Real Constant Set For Above Contact Is 60 & 59
 *********** Create Contact "Contact Region 4" ***********
             Real Constant Set For Above Contact Is 62 & 61
 *********** Create Contact "Contact Region 5" ***********
             Real Constant Set For Above Contact Is 64 & 63
 *********** Create Contact "Contact Region 6" ***********
             Real Constant Set For Above Contact Is 66 & 65
 *********** Create Contact "Contact Region 7" ***********
             Real Constant Set For Above Contact Is 68 & 67
 *********** Create Contact "Contact Region 8" ***********
             Real Constant Set For Above Contact Is 70 & 69
 *********** Create Contact "Contact Region 9" ***********
             Real Constant Set For Above Contact Is 72 & 71
 *********** Create Contact "Contact Region 10" ***********
             Real Constant Set For Above Contact Is 74 & 73
 *********** Create Contact "Contact Region 11" ***********
             Real Constant Set For Above Contact Is 76 & 75
 *********** Create Contact "Contact Region 12" ***********
             Real Constant Set For Above Contact Is 78 & 77
 *********** Create Contact "Contact Region 13" ***********
             Real Constant Set For Above Contact Is 80 & 79
 *********** Create Contact "Contact Region 14" ***********
             Real Constant Set For Above Contact Is 82 & 81
 *********** Create Contact "Contact Region 15" ***********
             Real Constant Set For Above Contact Is 84 & 83
 *********** Create Contact "Contact Region 16" ***********
             Real Constant Set For Above Contact Is 86 & 85
 *********** Create Contact "Contact Region 17" ***********
             Real Constant Set For Above Contact Is 88 & 87
 *********** Create Contact "Contact Region 18" ***********
             Real Constant Set For Above Contact Is 90 & 89
 *********** Create Contact "Contact Region 19" ***********
             Real Constant Set For Above Contact Is 92 & 91
 *********** Create Contact "Contact Region 20" ***********
             Real Constant Set For Above Contact Is 94 & 93
 *********** Create Contact "Contact Region 21" ***********
             Real Constant Set For Above Contact Is 96 & 95
 *********** Create Contact "Contact Region 22" ***********
             Real Constant Set For Above Contact Is 98 & 97
 *********** Create Contact "Contact Region 23" ***********
             Real Constant Set For Above Contact Is 100 & 99
 *********** Create Contact "Contact Region 24" ***********
             Real Constant Set For Above Contact Is 102 & 101
 *********** Create Contact "Contact Region 25" ***********
             Real Constant Set For Above Contact Is 104 & 103
 *********** Create Contact "Contact Region 26" ***********
             Real Constant Set For Above Contact Is 106 & 105
 *********** Create Contact "Contact Region 27" ***********
             Real Constant Set For Above Contact Is 108 & 107
 *********** Create Contact "Contact Region 28" ***********
             Real Constant Set For Above Contact Is 110 & 109
 *********** Create Contact "Contact Region 29" ***********
             Real Constant Set For Above Contact Is 112 & 111
 *********** Create Contact "Contact Region 30" ***********
             Real Constant Set For Above Contact Is 114 & 113
 *********** Create Contact "Contact Region 31" ***********
             Real Constant Set For Above Contact Is 116 & 115
 *********** Create Contact "Contact Region 32" ***********
             Real Constant Set For Above Contact Is 118 & 117
 *********** Create Contact "Contact Region 33" ***********
             Real Constant Set For Above Contact Is 120 & 119
 *********** Create Contact "Contact Region 34" ***********
             Real Constant Set For Above Contact Is 122 & 121
 *********** Create Contact "Contact Region 35" ***********
             Real Constant Set For Above Contact Is 124 & 123
 *********** Create Contact "Contact Region 36" ***********
             Real Constant Set For Above Contact Is 126 & 125
 *********** Create Contact "Contact Region 37" ***********
             Real Constant Set For Above Contact Is 128 & 127
 *********** Create Contact "Contact Region 38" ***********
             Real Constant Set For Above Contact Is 130 & 129
 *********** Create Contact "Contact Region 39" ***********
             Real Constant Set For Above Contact Is 132 & 131
 *********** Create Contact "Contact Region 40" ***********
             Real Constant Set For Above Contact Is 134 & 133
 *********** Create Contact "Contact Region 41" ***********
             Real Constant Set For Above Contact Is 136 & 135
 *********** Create Contact "Contact Region 42" ***********
             Real Constant Set For Above Contact Is 138 & 137
 *********** Create Contact "Contact Region 43" ***********
             Real Constant Set For Above Contact Is 140 & 139
 *********** Create Contact "Contact Region 44" ***********
             Real Constant Set For Above Contact Is 142 & 141
 *********** Create Contact "Contact Region 45" ***********
             Real Constant Set For Above Contact Is 144 & 143
 *********** Create Contact "Contact Region 46" ***********
             Real Constant Set For Above Contact Is 146 & 145
 *********** Create Contact "Contact Region 47" ***********
             Real Constant Set For Above Contact Is 148 & 147
 *********** Create Contact "Contact Region 48" ***********
             Real Constant Set For Above Contact Is 150 & 149
 *********** Create Contact "Contact Region 49" ***********
             Real Constant Set For Above Contact Is 152 & 151
 *********** Create Contact "Contact Region 50" ***********
             Real Constant Set For Above Contact Is 154 & 153
 *********** Create Contact "Contact Region 51" ***********
             Real Constant Set For Above Contact Is 156 & 155
 *********** Create Contact "Contact Region 52" ***********
             Real Constant Set For Above Contact Is 158 & 157
 *********** Create Contact "Contact Region 53" ***********
             Real Constant Set For Above Contact Is 160 & 159
 *********** Create Contact "Contact Region 54" ***********
             Real Constant Set For Above Contact Is 162 & 161
 *********** Create Contact "Contact Region 55" ***********
             Real Constant Set For Above Contact Is 164 & 163
 *********** Create Contact "Contact Region 56" ***********
             Real Constant Set For Above Contact Is 166 & 165
 *********** Create Contact "Contact Region 57" ***********
             Real Constant Set For Above Contact Is 168 & 167
 *********** Create Contact "Contact Region 58" ***********
             Real Constant Set For Above Contact Is 170 & 169
 *********** Create Contact "Contact Region 59" ***********
             Real Constant Set For Above Contact Is 172 & 171
 *********** Create Contact "Contact Region 60" ***********
             Real Constant Set For Above Contact Is 174 & 173
 *********** Create Contact "Contact Region 61" ***********
             Real Constant Set For Above Contact Is 176 & 175
 *********** Create Contact "Contact Region 62" ***********
             Real Constant Set For Above Contact Is 178 & 177
 *********** Create Contact "Contact Region 63" ***********
             Real Constant Set For Above Contact Is 180 & 179
 *********** Create Contact "Contact Region 64" ***********
             Real Constant Set For Above Contact Is 182 & 181
 *********** Create Contact "Contact Region 65" ***********
             Real Constant Set For Above Contact Is 184 & 183
 *********** Create Contact "Contact Region 66" ***********
             Real Constant Set For Above Contact Is 186 & 185
 *********** Create Contact "Contact Region 67" ***********
             Real Constant Set For Above Contact Is 188 & 187
 *********** Create Contact "Contact Region 68" ***********
             Real Constant Set For Above Contact Is 190 & 189
 *********** Create Contact "Contact Region 69" ***********
             Real Constant Set For Above Contact Is 192 & 191
 *********** Create Contact "Contact Region 70" ***********
             Real Constant Set For Above Contact Is 194 & 193
 *********** Create Contact "Contact Region 71" ***********
             Real Constant Set For Above Contact Is 196 & 195
 *********** Create Contact "Contact Region 72" ***********
             Real Constant Set For Above Contact Is 198 & 197
 *********** Create Contact "Contact Region 73" ***********
             Real Constant Set For Above Contact Is 200 & 199
 *********** Create Contact "Contact Region 74" ***********
             Real Constant Set For Above Contact Is 202 & 201
 *********** Create Contact "Contact Region 75" ***********
             Real Constant Set For Above Contact Is 204 & 203
 *********** Create Contact "Contact Region 76" ***********
             Real Constant Set For Above Contact Is 206 & 205
 *********** Create Contact "Contact Region 77" ***********
             Real Constant Set For Above Contact Is 208 & 207
 *********** Create Contact "Contact Region 78" ***********
             Real Constant Set For Above Contact Is 210 & 209
 *********** Create Contact "Contact Region 79" ***********
             Real Constant Set For Above Contact Is 212 & 211
 *********** Create Contact "Contact Region 80" ***********
             Real Constant Set For Above Contact Is 214 & 213
 *********** Create Contact "Contact Region 81" ***********
             Real Constant Set For Above Contact Is 216 & 215
 *********** Create Contact "Contact Region 82" ***********
             Real Constant Set For Above Contact Is 218 & 217
 *********** Create Contact "Contact Region 83" ***********
             Real Constant Set For Above Contact Is 220 & 219
 *********** Create Contact "Contact Region 84" ***********
             Real Constant Set For Above Contact Is 222 & 221
 *********** Create Contact "Contact Region 85" ***********
             Real Constant Set For Above Contact Is 224 & 223
 *********** Create Contact "Contact Region 86" ***********
             Real Constant Set For Above Contact Is 226 & 225
 *********** Create Contact "Contact Region 87" ***********
             Real Constant Set For Above Contact Is 228 & 227
 *********** Create Contact "Contact Region 88" ***********
             Real Constant Set For Above Contact Is 230 & 229
 *********** Create Contact "Contact Region 89" ***********
             Real Constant Set For Above Contact Is 232 & 231
 *********** Create Contact "Contact Region 90" ***********
             Real Constant Set For Above Contact Is 234 & 233
 *********** Create Contact "Contact Region 91" ***********
             Real Constant Set For Above Contact Is 236 & 235
 *********** Create Contact "Contact Region 92" ***********
             Real Constant Set For Above Contact Is 238 & 237
 *********** Create Contact "Contact Region 93" ***********
             Real Constant Set For Above Contact Is 240 & 239
 *********** Create Contact "Contact Region 94" ***********
             Real Constant Set For Above Contact Is 242 & 241
 *********** Define Force Using Surface Effect Elements ***********


 ***** ROUTINE COMPLETED *****  CP =         1.469


 --- Number of total nodes = 61987
 --- Number of contact elements = 32570
 --- Number of spring elements = 0
 --- Number of bearing elements = 0
 --- Number of solid elements = 17261
 --- Number of condensed parts = 0
 --- Number of total elements = 49831

 *GET  _WALLBSOL  FROM  ACTI  ITEM=TIME WALL  VALUE= 0.343611111    
 ****************************************************************************
 *************************    SOLUTION       ********************************
 ****************************************************************************

 *****  ANSYS SOLUTION ROUTINE  *****


 PERFORM A STATIC ANALYSIS
  THIS WILL BE A NEW ANALYSIS

 USE A MAXIMUM OF     1 EQUILIBRIUM ITERATIONS EACH SUBSTEP

 *** WARNING ***                         CP =       1.500   TIME= 00:20:37
 Using 1 iteration per substep may result in unconverged solutions for   
 nonlinear analysis and the program may not indicate divergence in this  
 case.  Check your results.                                              

 DO NOT USE PREDICTOR METHOD FOR  ALL DEGREES OF FREEDOM

 USE PRECONDITIONED CONJUGATE GRADIENT SOLVER
  CONVERGENCE TOLERANCE = 1.00000E-08
  MAXIMUM ITERATION     = NumNode*DofPerNode*  1.0000    

 CONTACT INFORMATION PRINTOUT LEVEL       1

 DO NOT COMBINE ELEMENT MATRIX FILES (.emat) AFTER DISTRIBUTED PARALLEL SOLUTION

 DO NOT COMBINE ELEMENT SAVE DATA FILES (.esav) AFTER DISTRIBUTED PARALLEL SOLUTION

 NLDIAG: Nonlinear diagnostics CONT option is set to ON. 
         Writing frequency : each ITERATION.

 DO NOT SAVE ANY RESTART FILES AT ALL
 ****************************************************
 ******************* SOLVE FOR LS 1 OF 1 ****************

 SELECT       FOR ITEM=TYPE COMPONENT=    
  IN RANGE       243 TO        243 STEP          1

          2  ELEMENTS (OF      49831  DEFINED) SELECTED BY  ESEL  COMMAND.

 SELECT      ALL NODES HAVING ANY ELEMENT IN ELEMENT SET.

        9 NODES (OF    61987  DEFINED) SELECTED FROM
        2 SELECTED ELEMENTS BY NSLE COMMAND.

 SPECIFIED SURFACE LOAD PRES FOR ALL SELECTED ELEMENTS  LKEY =  1   KVAL = 1
      SET ACCORDING TO TABLE PARAMETER = _LOADVARI470X                   

 SPECIFIED SURFACE LOAD PRES FOR ALL SELECTED ELEMENTS  LKEY =  2   KVAL = 1
      SET ACCORDING TO TABLE PARAMETER = _LOADVARI470Y                   

 SPECIFIED SURFACE LOAD PRES FOR ALL SELECTED ELEMENTS  LKEY =  3   KVAL = 1
      SET ACCORDING TO TABLE PARAMETER = _LOADVARI470Z                   

 ALL SELECT   FOR ITEM=NODE COMPONENT=    
  IN RANGE         1 TO      61987 STEP          1

      61987  NODES (OF      61987  DEFINED) SELECTED BY NSEL  COMMAND.

 ALL SELECT   FOR ITEM=ELEM COMPONENT=    
  IN RANGE         1 TO      49831 STEP          1

      49831  ELEMENTS (OF      49831  DEFINED) SELECTED BY  ESEL  COMMAND.

 PRINTOUT RESUMED BY /GOP

 USE       1 SUBSTEPS INITIALLY THIS LOAD STEP FOR ALL  DEGREES OF FREEDOM
 FOR AUTOMATIC TIME STEPPING:
   USE      1 SUBSTEPS AS A MAXIMUM
   USE      1 SUBSTEPS AS A MINIMUM

 TIME=  1.0000    

 ERASE THE CURRENT DATABASE OUTPUT CONTROL TABLE.


 WRITE ALL  ITEMS TO THE DATABASE WITH A FREQUENCY OF NONE
   FOR ALL APPLICABLE ENTITIES

 WRITE NSOL ITEMS TO THE DATABASE WITH A FREQUENCY OF ALL 
   FOR ALL APPLICABLE ENTITIES

 WRITE RSOL ITEMS TO THE DATABASE WITH A FREQUENCY OF ALL 
   FOR ALL APPLICABLE ENTITIES

 WRITE STRS ITEMS TO THE DATABASE WITH A FREQUENCY OF ALL 
   FOR ALL APPLICABLE ENTITIES

 WRITE EPEL ITEMS TO THE DATABASE WITH A FREQUENCY OF ALL 
   FOR ALL APPLICABLE ENTITIES

 WRITE EPPL ITEMS TO THE DATABASE WITH A FREQUENCY OF ALL 
   FOR ALL APPLICABLE ENTITIES

 NONLINEAR STABILIZATION CONTROL:
 KEY=OFF 


 *GET  ANSINTER_  FROM  ACTI  ITEM=INT        VALUE=  0.00000000    

 *IF  ANSINTER_                         ( =   0.00000     )  NE  
      0                                 ( =   0.00000     )  THEN    

 *ENDIF

 *****  ANSYS SOLVE    COMMAND  *****

 *** WARNING ***                         CP =       1.531   TIME= 00:20:37
 Element shape checking is currently inactive.  Issue SHPP,ON or         
 SHPP,WARN to reactivate, if desired.                                    

 *** WARNING ***                         CP =       1.594   TIME= 00:20:37
 The preconditioned conjugate gradient solver (EQSLV,PCG command) only   
 works for fully constrained model.  There are less than 3 constraints   
 in the current model.  The solver has been reset to sparse              
 (EQSLV,SPARSE).                                                         

 *** NOTE ***                            CP =       1.688   TIME= 00:20:37
 The model data was checked and warning messages were found.             
  Please review output or errors file ( C:\Users\zehir\Desktop\ANSYS     
 Analysis\_ProjectScratch\ScrEF84\file0.err ) for these warning          
 messages.                                                               

 *** SELECTION OF ELEMENT TECHNOLOGIES FOR APPLICABLE ELEMENTS ***
      --- GIVE SUGGESTIONS AND RESET THE KEY OPTIONS ---

 ELEMENT TYPE    1 IS SOLID186. KEYOPT(2)=0 IS SUGGESTED AND HAS BEEN RESET.
  KEYOPT(1-12)=    0    0    0    0    0    0    0    0    0    0    0    0

 ELEMENT TYPE    2 IS SOLID186. KEYOPT(2)=0 IS SUGGESTED AND HAS BEEN RESET.
  KEYOPT(1-12)=    0    0    0    0    0    0    0    0    0    0    0    0

 ELEMENT TYPE    3 IS SOLID187. IT IS NOT ASSOCIATED WITH FULLY INCOMPRESSIBLE
 HYPERELASTIC MATERIALS. NO SUGGESTION IS AVAILABLE AND NO RESETTING IS NEEDED.

 ELEMENT TYPE    4 IS SOLID187. IT IS NOT ASSOCIATED WITH FULLY INCOMPRESSIBLE
 HYPERELASTIC MATERIALS. NO SUGGESTION IS AVAILABLE AND NO RESETTING IS NEEDED.

 ELEMENT TYPE    5 IS SOLID187. IT IS NOT ASSOCIATED WITH FULLY INCOMPRESSIBLE
 HYPERELASTIC MATERIALS. NO SUGGESTION IS AVAILABLE AND NO RESETTING IS NEEDED.

 ELEMENT TYPE    6 IS SOLID187. IT IS NOT ASSOCIATED WITH FULLY INCOMPRESSIBLE
 HYPERELASTIC MATERIALS. NO SUGGESTION IS AVAILABLE AND NO RESETTING IS NEEDED.

 ELEMENT TYPE    7 IS SOLID187. IT IS NOT ASSOCIATED WITH FULLY INCOMPRESSIBLE
 HYPERELASTIC MATERIALS. NO SUGGESTION IS AVAILABLE AND NO RESETTING IS NEEDED.

 ELEMENT TYPE    8 IS SOLID187. IT IS NOT ASSOCIATED WITH FULLY INCOMPRESSIBLE
 HYPERELASTIC MATERIALS. NO SUGGESTION IS AVAILABLE AND NO RESETTING IS NEEDED.

 ELEMENT TYPE    9 IS SOLID186. KEYOPT(2)=0 IS SUGGESTED AND HAS BEEN RESET.
  KEYOPT(1-12)=    0    0    0    0    0    0    0    0    0    0    0    0

 ELEMENT TYPE   10 IS SOLID187. IT IS NOT ASSOCIATED WITH FULLY INCOMPRESSIBLE
 HYPERELASTIC MATERIALS. NO SUGGESTION IS AVAILABLE AND NO RESETTING IS NEEDED.

 ELEMENT TYPE   11 IS SOLID187. IT IS NOT ASSOCIATED WITH FULLY INCOMPRESSIBLE
 HYPERELASTIC MATERIALS. NO SUGGESTION IS AVAILABLE AND NO RESETTING IS NEEDED.

 ELEMENT TYPE   12 IS SOLID187. IT IS NOT ASSOCIATED WITH FULLY INCOMPRESSIBLE
 HYPERELASTIC MATERIALS. NO SUGGESTION IS AVAILABLE AND NO RESETTING IS NEEDED.

 ELEMENT TYPE   13 IS SOLID187. IT IS NOT ASSOCIATED WITH FULLY INCOMPRESSIBLE
 HYPERELASTIC MATERIALS. NO SUGGESTION IS AVAILABLE AND NO RESETTING IS NEEDED.

 ELEMENT TYPE   14 IS SOLID187. IT IS NOT ASSOCIATED WITH FULLY INCOMPRESSIBLE
 HYPERELASTIC MATERIALS. NO SUGGESTION IS AVAILABLE AND NO RESETTING IS NEEDED.

 ELEMENT TYPE   15 IS SOLID187. IT IS NOT ASSOCIATED WITH FULLY INCOMPRESSIBLE
 HYPERELASTIC MATERIALS. NO SUGGESTION IS AVAILABLE AND NO RESETTING IS NEEDED.

 ELEMENT TYPE   16 IS SOLID187. IT IS NOT ASSOCIATED WITH FULLY INCOMPRESSIBLE
 HYPERELASTIC MATERIALS. NO SUGGESTION IS AVAILABLE AND NO RESETTING IS NEEDED.

 ELEMENT TYPE   17 IS SOLID187. IT IS NOT ASSOCIATED WITH FULLY INCOMPRESSIBLE
 HYPERELASTIC MATERIALS. NO SUGGESTION IS AVAILABLE AND NO RESETTING IS NEEDED.

 ELEMENT TYPE   18 IS SOLID187. IT IS NOT ASSOCIATED WITH FULLY INCOMPRESSIBLE
 HYPERELASTIC MATERIALS. NO SUGGESTION IS AVAILABLE AND NO RESETTING IS NEEDED.

 ELEMENT TYPE   19 IS SOLID187. IT IS NOT ASSOCIATED WITH FULLY INCOMPRESSIBLE
 HYPERELASTIC MATERIALS. NO SUGGESTION IS AVAILABLE AND NO RESETTING IS NEEDED.

 ELEMENT TYPE   20 IS SOLID187. IT IS NOT ASSOCIATED WITH FULLY INCOMPRESSIBLE
 HYPERELASTIC MATERIALS. NO SUGGESTION IS AVAILABLE AND NO RESETTING IS NEEDED.

 ELEMENT TYPE   21 IS SOLID187. IT IS NOT ASSOCIATED WITH FULLY INCOMPRESSIBLE
 HYPERELASTIC MATERIALS. NO SUGGESTION IS AVAILABLE AND NO RESETTING IS NEEDED.

 ELEMENT TYPE   22 IS SOLID187. IT IS NOT ASSOCIATED WITH FULLY INCOMPRESSIBLE
 HYPERELASTIC MATERIALS. NO SUGGESTION IS AVAILABLE AND NO RESETTING IS NEEDED.

 ELEMENT TYPE   23 IS SOLID187. IT IS NOT ASSOCIATED WITH FULLY INCOMPRESSIBLE
 HYPERELASTIC MATERIALS. NO SUGGESTION IS AVAILABLE AND NO RESETTING IS NEEDED.

 ELEMENT TYPE   24 IS SOLID187. IT IS NOT ASSOCIATED WITH FULLY INCOMPRESSIBLE
 HYPERELASTIC MATERIALS. NO SUGGESTION IS AVAILABLE AND NO RESETTING IS NEEDED.

 ELEMENT TYPE   25 IS SOLID187. IT IS NOT ASSOCIATED WITH FULLY INCOMPRESSIBLE
 HYPERELASTIC MATERIALS. NO SUGGESTION IS AVAILABLE AND NO RESETTING IS NEEDED.

 ELEMENT TYPE   26 IS SOLID187. IT IS NOT ASSOCIATED WITH FULLY INCOMPRESSIBLE
 HYPERELASTIC MATERIALS. NO SUGGESTION IS AVAILABLE AND NO RESETTING IS NEEDED.

 ELEMENT TYPE   27 IS SOLID187. IT IS NOT ASSOCIATED WITH FULLY INCOMPRESSIBLE
 HYPERELASTIC MATERIALS. NO SUGGESTION IS AVAILABLE AND NO RESETTING IS NEEDED.

 ELEMENT TYPE   28 IS SOLID187. IT IS NOT ASSOCIATED WITH FULLY INCOMPRESSIBLE
 HYPERELASTIC MATERIALS. NO SUGGESTION IS AVAILABLE AND NO RESETTING IS NEEDED.

 ELEMENT TYPE   29 IS SOLID187. IT IS NOT ASSOCIATED WITH FULLY INCOMPRESSIBLE
 HYPERELASTIC MATERIALS. NO SUGGESTION IS AVAILABLE AND NO RESETTING IS NEEDED.

 ELEMENT TYPE   30 IS SOLID187. IT IS NOT ASSOCIATED WITH FULLY INCOMPRESSIBLE
 HYPERELASTIC MATERIALS. NO SUGGESTION IS AVAILABLE AND NO RESETTING IS NEEDED.

 ELEMENT TYPE   31 IS SOLID187. IT IS NOT ASSOCIATED WITH FULLY INCOMPRESSIBLE
 HYPERELASTIC MATERIALS. NO SUGGESTION IS AVAILABLE AND NO RESETTING IS NEEDED.

 ELEMENT TYPE   32 IS SOLID187. IT IS NOT ASSOCIATED WITH FULLY INCOMPRESSIBLE
 HYPERELASTIC MATERIALS. NO SUGGESTION IS AVAILABLE AND NO RESETTING IS NEEDED.

 ELEMENT TYPE   33 IS SOLID187. IT IS NOT ASSOCIATED WITH FULLY INCOMPRESSIBLE
 HYPERELASTIC MATERIALS. NO SUGGESTION IS AVAILABLE AND NO RESETTING IS NEEDED.

 ELEMENT TYPE   34 IS SOLID187. IT IS NOT ASSOCIATED WITH FULLY INCOMPRESSIBLE
 HYPERELASTIC MATERIALS. NO SUGGESTION IS AVAILABLE AND NO RESETTING IS NEEDED.

 ELEMENT TYPE   35 IS SOLID187. IT IS NOT ASSOCIATED WITH FULLY INCOMPRESSIBLE
 HYPERELASTIC MATERIALS. NO SUGGESTION IS AVAILABLE AND NO RESETTING IS NEEDED.

 ELEMENT TYPE   36 IS SOLID187. IT IS NOT ASSOCIATED WITH FULLY INCOMPRESSIBLE
 HYPERELASTIC MATERIALS. NO SUGGESTION IS AVAILABLE AND NO RESETTING IS NEEDED.

 ELEMENT TYPE   37 IS SOLID187. IT IS NOT ASSOCIATED WITH FULLY INCOMPRESSIBLE
 HYPERELASTIC MATERIALS. NO SUGGESTION IS AVAILABLE AND NO RESETTING IS NEEDED.

 ELEMENT TYPE   38 IS SOLID187. IT IS NOT ASSOCIATED WITH FULLY INCOMPRESSIBLE
 HYPERELASTIC MATERIALS. NO SUGGESTION IS AVAILABLE AND NO RESETTING IS NEEDED.

 ELEMENT TYPE   39 IS SOLID187. IT IS NOT ASSOCIATED WITH FULLY INCOMPRESSIBLE
 HYPERELASTIC MATERIALS. NO SUGGESTION IS AVAILABLE AND NO RESETTING IS NEEDED.

 ELEMENT TYPE   40 IS SOLID187. IT IS NOT ASSOCIATED WITH FULLY INCOMPRESSIBLE
 HYPERELASTIC MATERIALS. NO SUGGESTION IS AVAILABLE AND NO RESETTING IS NEEDED.

 ELEMENT TYPE   41 IS SOLID187. IT IS NOT ASSOCIATED WITH FULLY INCOMPRESSIBLE
 HYPERELASTIC MATERIALS. NO SUGGESTION IS AVAILABLE AND NO RESETTING IS NEEDED.

 ELEMENT TYPE   42 IS SOLID187. IT IS NOT ASSOCIATED WITH FULLY INCOMPRESSIBLE
 HYPERELASTIC MATERIALS. NO SUGGESTION IS AVAILABLE AND NO RESETTING IS NEEDED.

 ELEMENT TYPE   43 IS SOLID187. IT IS NOT ASSOCIATED WITH FULLY INCOMPRESSIBLE
 HYPERELASTIC MATERIALS. NO SUGGESTION IS AVAILABLE AND NO RESETTING IS NEEDED.

 ELEMENT TYPE   44 IS SOLID187. IT IS NOT ASSOCIATED WITH FULLY INCOMPRESSIBLE
 HYPERELASTIC MATERIALS. NO SUGGESTION IS AVAILABLE AND NO RESETTING IS NEEDED.

 ELEMENT TYPE   45 IS SOLID186. KEYOPT(2)=0 IS SUGGESTED AND HAS BEEN RESET.
  KEYOPT(1-12)=    0    0    0    0    0    0    0    0    0    0    0    0

 ELEMENT TYPE   46 IS SOLID186. KEYOPT(2)=0 IS SUGGESTED AND HAS BEEN RESET.
  KEYOPT(1-12)=    0    0    0    0    0    0    0    0    0    0    0    0

 ELEMENT TYPE   47 IS SOLID186. KEYOPT(2)=0 IS SUGGESTED AND HAS BEEN RESET.
  KEYOPT(1-12)=    0    0    0    0    0    0    0    0    0    0    0    0

 ELEMENT TYPE   48 IS SOLID186. KEYOPT(2)=0 IS SUGGESTED AND HAS BEEN RESET.
  KEYOPT(1-12)=    0    0    0    0    0    0    0    0    0    0    0    0

 ELEMENT TYPE   49 IS SOLID186. KEYOPT(2)=0 IS SUGGESTED AND HAS BEEN RESET.
  KEYOPT(1-12)=    0    0    0    0    0    0    0    0    0    0    0    0

 ELEMENT TYPE   50 IS SOLID186. KEYOPT(2)=0 IS SUGGESTED AND HAS BEEN RESET.
  KEYOPT(1-12)=    0    0    0    0    0    0    0    0    0    0    0    0

 ELEMENT TYPE   51 IS SOLID186. KEYOPT(2)=0 IS SUGGESTED AND HAS BEEN RESET.
  KEYOPT(1-12)=    0    0    0    0    0    0    0    0    0    0    0    0

 ELEMENT TYPE   52 IS SOLID186. KEYOPT(2)=0 IS SUGGESTED AND HAS BEEN RESET.
  KEYOPT(1-12)=    0    0    0    0    0    0    0    0    0    0    0    0

 ELEMENT TYPE   53 IS SOLID186. KEYOPT(2)=0 IS SUGGESTED AND HAS BEEN RESET.
  KEYOPT(1-12)=    0    0    0    0    0    0    0    0    0    0    0    0

 ELEMENT TYPE   54 IS SOLID186. KEYOPT(2)=0 IS SUGGESTED AND HAS BEEN RESET.
  KEYOPT(1-12)=    0    0    0    0    0    0    0    0    0    0    0    0



 *** ANSYS - ENGINEERING ANALYSIS SYSTEM  RELEASE Release 18.2     18.2     ***
 DISTRIBUTED ANSYS Mechanical Enterprise                       

 00000000  VERSION=WINDOWS x64   00:20:37  DEC 18, 2017 CP=      1.750

 Mainv2--Static Structural (A5)                                                



                       S O L U T I O N   O P T I O N S

   PROBLEM DIMENSIONALITY. . . . . . . . . . . . .3-D                  
   DEGREES OF FREEDOM. . . . . . UX   UY   UZ  
   ANALYSIS TYPE . . . . . . . . . . . . . . . . .STATIC (STEADY-STATE)
   OFFSET TEMPERATURE FROM ABSOLUTE ZERO . . . . .  273.15    
   EQUATION SOLVER OPTION. . . . . . . . . . . . .SPARSE             
   NEWTON-RAPHSON OPTION . . . . . . . . . . . . .PROGRAM CHOSEN   
   GLOBALLY ASSEMBLED MATRIX . . . . . . . . . . .SYMMETRIC  

 *** WARNING ***                         CP =       1.938   TIME= 00:20:37
 Material number 243 (used by element 49830 ) should normally have at    
 least one MP or one TB type command associated with it.  Output of      
 energy by material may not be available.                                

 *** WARNING ***                         CP =       1.938   TIME= 00:20:37
 No constraints have been defined using the D command.                   

 *** NOTE ***                            CP =       2.031   TIME= 00:20:37
 The step data was checked and warning messages were found.              
  Please review output or errors file ( C:\Users\zehir\Desktop\ANSYS     
 Analysis\_ProjectScratch\ScrEF84\file0.err ) for these warning          
 messages.                                                               

 *** NOTE ***                            CP =       2.031   TIME= 00:20:37
 This nonlinear analysis defaults to using the full Newton-Raphson       
 solution procedure.  This can be modified using the NROPT command.      

 *** NOTE ***                            CP =       2.031   TIME= 00:20:37
 The conditions for direct assembly have been met.  No .emat or .erot    
 files will be produced.                                                 

 *** NOTE ***                            CP =       4.031   TIME= 00:20:39
 Symmetric Deformable- deformable contact pair identified by real        
 constant set 55 and contact element type 55 has been set up.  The       
 companion pair has real constant set ID 56.  Both pairs should have     
 the same behavior.                                                      
 ANSYS will keep the current pair and deactivate its companion pair,     
 resulting in asymmetric contact.                                        
 Contact algorithm: Augmented Lagrange method
 Contact detection at: Gauss integration point
 Contact stiffness factor FKN                  10.000    
 The resulting initial contact stiffness      0.30885E+06
 Default penetration tolerance factor FTOLN   0.10000    
 The resulting penetration tolerance          0.10344    
 Default opening contact stiffness OPSF will be used.
 Default tangent stiffness factor FKT          1.0000    
 Default elastic slip factor SLTOL            0.50000E-02
 The resulting elastic slip tolerance         0.12484E-01
 Update contact stiffness at each iteration
 Default Max. friction stress TAUMAX          0.10000E+21
 Average contact surface length                2.4969    
 Average contact pair depth                    1.0344    
 Default pinball region factor PINB           0.25000    
 The resulting pinball region                 0.25861    
 Initial penetration/gap is excluded.
 Bonded contact (always) is defined.

 *** NOTE ***                            CP =       4.031   TIME= 00:20:39
 Max.  Initial penetration 1.559982684E-08 was detected between contact  
 element 17332 and target element 17378.                                 
 ****************************************
  

 *** NOTE ***                            CP =       4.031   TIME= 00:20:39
 Symmetric Deformable- deformable contact pair identified by real        
 constant set 56 and contact element type 55 has been set up.  The       
 companion pair has real constant set ID 55.  Both pairs should have     
 the same behavior.                                                      
 ANSYS will deactivate the current pair and keep its companion pair,     
 resulting in asymmetric contact.                                        
 Contact algorithm: Augmented Lagrange method
 Contact detection at: Gauss integration point
 Contact stiffness factor FKN                  10.000    
 The resulting initial contact stiffness      0.30885E+06
 Default penetration tolerance factor FTOLN   0.10000    
 The resulting penetration tolerance          0.22665    
 Default opening contact stiffness OPSF will be used.
 Default tangent stiffness factor FKT          1.0000    
 Default elastic slip factor SLTOL            0.50000E-02
 The resulting elastic slip tolerance         0.21216E-01
 Update contact stiffness at each iteration
 Default Max. friction stress TAUMAX          0.10000E+21
 Average contact surface length                4.2433    
 Average contact pair depth                    2.2665    
 Default pinball region factor PINB           0.25000    
 The resulting pinball region                 0.56661    
 Initial penetration/gap is excluded.
 Bonded contact (always) is defined.

 *** NOTE ***                            CP =       4.031   TIME= 00:20:39
 Max.  Initial penetration 1.395060176E-08 was detected between contact  
 element 17354 and target element 17296.                                 
 ****************************************
  

 *** NOTE ***                            CP =       4.031   TIME= 00:20:39
 Symmetric Deformable- deformable contact pair identified by real        
 constant set 57 and contact element type 57 has been set up.  The       
 companion pair has real constant set ID 58.  Both pairs should have     
 the same behavior.                                                      
 ANSYS will deactivate the current pair and keep its companion pair,     
 resulting in asymmetric contact.                                        
 Contact algorithm: Augmented Lagrange method
 Contact detection at: Gauss integration point
 Contact stiffness factor FKN                  10.000    
 The resulting initial contact stiffness      0.67670E+06
 Default penetration tolerance factor FTOLN   0.10000    
 The resulting penetration tolerance          0.10344    
 Default opening contact stiffness OPSF will be used.
 Default tangent stiffness factor FKT          1.0000    
 Default elastic slip factor SLTOL            0.50000E-02
 The resulting elastic slip tolerance         0.12484E-01
 Update contact stiffness at each iteration
 Default Max. friction stress TAUMAX          0.10000E+21
 Average contact surface length                2.4969    
 Average contact pair depth                    1.0344    
 Default pinball region factor PINB           0.25000    
 The resulting pinball region                 0.25861    
 Initial penetration/gap is excluded.
 Bonded contact (always) is defined.

 *** NOTE ***                            CP =       4.031   TIME= 00:20:39
 Min.  Initial gap 2.56495298E-03 was detected between contact element   
 17419 and target element 17541.                                         
 The gap is closed due to initial settings.                              
  
 Max.  Geometric gap 2.201150242E-02 has been detected between contact   
 element 17423 and target element 17587.                                 
 ****************************************
  

 *** NOTE ***                            CP =       4.031   TIME= 00:20:39
 Symmetric Deformable- deformable contact pair identified by real        
 constant set 58 and contact element type 57 has been set up.  The       
 companion pair has real constant set ID 57.  Both pairs should have     
 the same behavior.                                                      
 ANSYS will keep the current pair and deactivate its companion pair,     
 resulting in asymmetric contact.                                        
 Contact algorithm: Augmented Lagrange method
 Contact detection at: Gauss integration point
 Contact stiffness factor FKN                  10.000    
 The resulting initial contact stiffness      0.67670E+06
 Default penetration tolerance factor FTOLN   0.10000    
 The resulting penetration tolerance          0.96845E-01
 Default opening contact stiffness OPSF will be used.
 Default tangent stiffness factor FKT          1.0000    
 Default elastic slip factor SLTOL            0.50000E-02
 The resulting elastic slip tolerance         0.33157E-02
 Update contact stiffness at each iteration
 Default Max. friction stress TAUMAX          0.10000E+21
 Average contact surface length               0.66315    
 Average contact pair depth                   0.96845    
 Default pinball region factor PINB           0.25000    
 The resulting pinball region                 0.24211    
 Initial penetration/gap is excluded.
 Bonded contact (always) is defined.

 *** NOTE ***                            CP =       4.031   TIME= 00:20:39
 Max.  Initial penetration 3.761604592E-04 was detected between contact  
 element 17482 and target element 17391.                                 
 You may move entire target surface by : x= 2.332479046E-04, y=          
 -1.807969065E-04, z= -2.332479039E-04,to reduce initial penetration.    
  
 Max.  Geometric gap 0.301054233 has been detected between contact       
 element 17508 and target element 17403.                                 
 *WARNING*: The geometric gap/penetration is larger than the pair based  
 pinball.  Please verify the pinball radius carefully.                   
 *WARNING*: The geometric gap/penetration may be too large.  Increase    
 pinball radius if it is a true geometric gap/penetration.  Decrease     
 pinball if it is a false one.                                           
 ****************************************
  

 *** NOTE ***                            CP =       4.031   TIME= 00:20:39
 Symmetric Deformable- deformable contact pair identified by real        
 constant set 59 and contact element type 59 has been set up.  The       
 companion pair has real constant set ID 60.  Both pairs should have     
 the same behavior.                                                      
 ANSYS will deactivate the current pair and keep its companion pair,     
 resulting in asymmetric contact.                                        
 Contact algorithm: Augmented Lagrange method
 Contact detection at: Gauss integration point
 Contact stiffness factor FKN                  10.000    
 The resulting initial contact stiffness      0.67670E+06
 Default penetration tolerance factor FTOLN   0.10000    
 The resulting penetration tolerance          0.10344    
 Default opening contact stiffness OPSF will be used.
 Default tangent stiffness factor FKT          1.0000    
 Default elastic slip factor SLTOL            0.50000E-02
 The resulting elastic slip tolerance         0.12484E-01
 Update contact stiffness at each iteration
 Default Max. friction stress TAUMAX          0.10000E+21
 Average contact surface length                2.4969    
 Average contact pair depth                    1.0344    
 Default pinball region factor PINB           0.25000    
 The resulting pinball region                 0.25861    
 Initial penetration/gap is excluded.
 Bonded contact (always) is defined.

 *** NOTE ***                            CP =       4.031   TIME= 00:20:39
 Min.  Initial gap 2.748456905E-03 was detected between contact element  
 17628 and target element 17779.                                         
 The gap is closed due to initial settings.                              
  
 Max.  Geometric gap 2.182656451E-02 has been detected between contact   
 element 17636 and target element 17788.                                 
 ****************************************
  

 *** NOTE ***                            CP =       4.031   TIME= 00:20:39
 Symmetric Deformable- deformable contact pair identified by real        
 constant set 60 and contact element type 59 has been set up.  The       
 companion pair has real constant set ID 59.  Both pairs should have     
 the same behavior.                                                      
 ANSYS will keep the current pair and deactivate its companion pair,     
 resulting in asymmetric contact.                                        
 Contact algorithm: Augmented Lagrange method
 Contact detection at: Gauss integration point
 Contact stiffness factor FKN                  10.000    
 The resulting initial contact stiffness      0.67670E+06
 Default penetration tolerance factor FTOLN   0.10000    
 The resulting penetration tolerance          0.96845E-01
 Default opening contact stiffness OPSF will be used.
 Default tangent stiffness factor FKT          1.0000    
 Default elastic slip factor SLTOL            0.50000E-02
 The resulting elastic slip tolerance         0.33157E-02
 Update contact stiffness at each iteration
 Default Max. friction stress TAUMAX          0.10000E+21
 Average contact surface length               0.66315    
 Average contact pair depth                   0.96845    
 Default pinball region factor PINB           0.25000    
 The resulting pinball region                 0.24211    
 Initial penetration/gap is excluded.
 Bonded contact (always) is defined.

 *** NOTE ***                            CP =       4.031   TIME= 00:20:39
 Max.  Initial penetration 3.509692356E-04 was detected between contact  
 element 17677 and target element 17592.                                 
 You may move entire target surface by : x= -2.18378718E-04, y=          
 -1.667359482E-04, z= 2.183787157E-04,to reduce initial penetration.     
  
 Max.  Geometric gap 0.301006893 has been detected between contact       
 element 17647 and target element 17600.                                 
 *WARNING*: The geometric gap/penetration is larger than the pair based  
 pinball.  Please verify the pinball radius carefully.                   
 *WARNING*: The geometric gap/penetration may be too large.  Increase    
 pinball radius if it is a true geometric gap/penetration.  Decrease     
 pinball if it is a false one.                                           
 ****************************************
  

 *** NOTE ***                            CP =       4.031   TIME= 00:20:39
 Symmetric Deformable- deformable contact pair identified by real        
 constant set 61 and contact element type 61 has been set up.  The       
 companion pair has real constant set ID 62.  Both pairs should have     
 the same behavior.                                                      
 ANSYS will deactivate the current pair and keep its companion pair,     
 resulting in asymmetric contact.                                        
 Contact algorithm: Augmented Lagrange method
 Contact detection at: Gauss integration point
 Contact stiffness factor FKN                  10.000    
 The resulting initial contact stiffness      0.42067E+06
 Default penetration tolerance factor FTOLN   0.10000    
 The resulting penetration tolerance          0.10344    
 Default opening contact stiffness OPSF will be used.
 Default tangent stiffness factor FKT          1.0000    
 Default elastic slip factor SLTOL            0.50000E-02
 The resulting elastic slip tolerance         0.12484E-01
 Update contact stiffness at each iteration
 Default Max. friction stress TAUMAX          0.10000E+21
 Average contact surface length                2.4969    
 Average contact pair depth                    1.0344    
 Default pinball region factor PINB           0.25000    
 The resulting pinball region                 0.25861    
 Initial penetration/gap is excluded.
 Bonded contact (always) is defined.

 *** NOTE ***                            CP =       4.031   TIME= 00:20:39
 Max.  Initial penetration 3.085020899E-02 was detected between contact  
 element 17827 and target element 17857.                                 
 You may move entire target surface by : x= 3.545357149E-16, y=          
 -6.838952695E-03, z= 3.008262157E-02,to reduce initial penetration.     
 ****************************************
  

 *** NOTE ***                            CP =       4.031   TIME= 00:20:39
 Symmetric Deformable- deformable contact pair identified by real        
 constant set 62 and contact element type 61 has been set up.  The       
 companion pair has real constant set ID 61.  Both pairs should have     
 the same behavior.                                                      
 ANSYS will keep the current pair and deactivate its companion pair,     
 resulting in asymmetric contact.                                        
 Contact algorithm: Augmented Lagrange method
 Contact detection at: Gauss integration point
 Contact stiffness factor FKN                  10.000    
 The resulting initial contact stiffness      0.42067E+06
 Default penetration tolerance factor FTOLN   0.10000    
 The resulting penetration tolerance          0.16640    
 Default opening contact stiffness OPSF will be used.
 Default tangent stiffness factor FKT          1.0000    
 Default elastic slip factor SLTOL            0.50000E-02
 The resulting elastic slip tolerance         0.22352E-01
 Update contact stiffness at each iteration
 Default Max. friction stress TAUMAX          0.10000E+21
 Average contact surface length                4.4704    
 Average contact pair depth                    1.6640    
 Default pinball region factor PINB           0.25000    
 The resulting pinball region                 0.41600    
 Initial penetration/gap is excluded.
 Bonded contact (always) is defined.

 *** NOTE ***                            CP =       4.031   TIME= 00:20:39
 Max.  Initial penetration 2.703466547E-02 was detected between contact  
 element 17845 and target element 17811.                                 
 You may move entire target surface by : x= 8.043221645E-04, y=          
 2.701337169E-02, z= 7.09896623E-04,to reduce initial penetration.       
 ****************************************
  

 *** NOTE ***                            CP =       4.031   TIME= 00:20:39
 Symmetric Deformable- deformable contact pair identified by real        
 constant set 63 and contact element type 63 has been set up.  The       
 companion pair has real constant set ID 64.  Both pairs should have     
 the same behavior.                                                      
 ANSYS will deactivate the current pair and keep its companion pair,     
 resulting in asymmetric contact.                                        
 Contact algorithm: Augmented Lagrange method
 Contact detection at: Gauss integration point
 Contact stiffness factor FKN                  10.000    
 The resulting initial contact stiffness      0.47771E+06
 Default penetration tolerance factor FTOLN   0.10000    
 The resulting penetration tolerance          0.10344    
 Default opening contact stiffness OPSF will be used.
 Default tangent stiffness factor FKT          1.0000    
 Default elastic slip factor SLTOL            0.50000E-02
 The resulting elastic slip tolerance         0.12484E-01
 Update contact stiffness at each iteration
 Default Max. friction stress TAUMAX          0.10000E+21
 Average contact surface length                2.4969    
 Average contact pair depth                    1.0344    
 Default pinball region factor PINB           0.25000    
 The resulting pinball region                 0.25861    
 Initial penetration/gap is excluded.
 Bonded contact (always) is defined.

 *** NOTE ***                            CP =       4.031   TIME= 00:20:39
 Max.  Initial penetration 1.457345853E-14 was detected between contact  
 element 17877 and target element 17913.                                 
 ****************************************
  

 *** NOTE ***                            CP =       4.031   TIME= 00:20:39
 Symmetric Deformable- deformable contact pair identified by real        
 constant set 64 and contact element type 63 has been set up.  The       
 companion pair has real constant set ID 63.  Both pairs should have     
 the same behavior.                                                      
 ANSYS will keep the current pair and deactivate its companion pair,     
 resulting in asymmetric contact.                                        
 Contact algorithm: Augmented Lagrange method
 Contact detection at: Gauss integration point
 Contact stiffness factor FKN                  10.000    
 The resulting initial contact stiffness      0.47771E+06
 Default penetration tolerance factor FTOLN   0.10000    
 The resulting penetration tolerance          0.14653    
 Default opening contact stiffness OPSF will be used.
 Default tangent stiffness factor FKT          1.0000    
 Default elastic slip factor SLTOL            0.50000E-02
 The resulting elastic slip tolerance         0.81330E-02
 Update contact stiffness at each iteration
 Default Max. friction stress TAUMAX          0.10000E+21
 Average contact surface length                1.6266    
 Average contact pair depth                    1.4653    
 Default pinball region factor PINB           0.25000    
 The resulting pinball region                 0.36633    
 Initial penetration/gap is excluded.
 Bonded contact (always) is defined.

 *** NOTE ***                            CP =       4.031   TIME= 00:20:39
 Max.  Initial penetration 1.457345853E-14 was detected between contact  
 element 17905 and target element 17867.                                 
 ****************************************
  

 *** NOTE ***                            CP =       4.031   TIME= 00:20:39
 Symmetric Deformable- deformable contact pair identified by real        
 constant set 65 and contact element type 65 has been set up.  The       
 companion pair has real constant set ID 66.  Both pairs should have     
 the same behavior.                                                      
 ANSYS will deactivate the current pair and keep its companion pair,     
 resulting in asymmetric contact.                                        
 Contact algorithm: Augmented Lagrange method
 Contact detection at: Gauss integration point
 Contact stiffness factor FKN                  10.000    
 The resulting initial contact stiffness      0.67670E+06
 Default penetration tolerance factor FTOLN   0.10000    
 The resulting penetration tolerance          0.10344    
 Default opening contact stiffness OPSF will be used.
 Default tangent stiffness factor FKT          1.0000    
 Default elastic slip factor SLTOL            0.50000E-02
 The resulting elastic slip tolerance         0.12484E-01
 Update contact stiffness at each iteration
 Default Max. friction stress TAUMAX          0.10000E+21
 Average contact surface length                2.4969    
 Average contact pair depth                    1.0344    
 Default pinball region factor PINB           0.25000    
 The resulting pinball region                 0.25861    
 Initial penetration/gap is excluded.
 Bonded contact (always) is defined.

 *** NOTE ***                            CP =       4.031   TIME= 00:20:39
 Min.  Initial gap 2.546760579E-03 was detected between contact element  
 17951 and target element 18104.                                         
 The gap is closed due to initial settings.                              
  
 Max.  Geometric gap 2.203802035E-02 has been detected between contact   
 element 17955 and target element 18085.                                 
 ****************************************
  

 *** NOTE ***                            CP =       4.031   TIME= 00:20:39
 Symmetric Deformable- deformable contact pair identified by real        
 constant set 66 and contact element type 65 has been set up.  The       
 companion pair has real constant set ID 65.  Both pairs should have     
 the same behavior.                                                      
 ANSYS will keep the current pair and deactivate its companion pair,     
 resulting in asymmetric contact.                                        
 Contact algorithm: Augmented Lagrange method
 Contact detection at: Gauss integration point
 Contact stiffness factor FKN                  10.000    
 The resulting initial contact stiffness      0.67670E+06
 Default penetration tolerance factor FTOLN   0.10000    
 The resulting penetration tolerance          0.96845E-01
 Default opening contact stiffness OPSF will be used.
 Default tangent stiffness factor FKT          1.0000    
 Default elastic slip factor SLTOL            0.50000E-02
 The resulting elastic slip tolerance         0.33157E-02
 Update contact stiffness at each iteration
 Default Max. friction stress TAUMAX          0.10000E+21
 Average contact surface length               0.66315    
 Average contact pair depth                   0.96845    
 Default pinball region factor PINB           0.25000    
 The resulting pinball region                 0.24211    
 Initial penetration/gap is excluded.
 Bonded contact (always) is defined.

 *** NOTE ***                            CP =       4.031   TIME= 00:20:39
 Max.  Initial penetration 3.263875018E-04 was detected between contact  
 element 18038 and target element 17931.                                 
 You may move entire target surface by : x= 3.893549417E-18, y=          
 -1.739185398E-04, z= 2.761904105E-04,to reduce initial penetration.     
  
 Max.  Geometric gap 0.301094089 has been detected between contact       
 element 18002 and target element 17934.                                 
 *WARNING*: The geometric gap/penetration is larger than the pair based  
 pinball.  Please verify the pinball radius carefully.                   
 *WARNING*: The geometric gap/penetration may be too large.  Increase    
 pinball radius if it is a true geometric gap/penetration.  Decrease     
 pinball if it is a false one.                                           
 ****************************************
  

 *** NOTE ***                            CP =       4.031   TIME= 00:20:39
 Symmetric Deformable- deformable contact pair identified by real        
 constant set 67 and contact element type 67 has been set up.  The       
 companion pair has real constant set ID 68.  Both pairs should have     
 the same behavior.                                                      
 ANSYS will keep the current pair and deactivate its companion pair,     
 resulting in asymmetric contact.                                        
 Contact algorithm: Augmented Lagrange method
 Contact detection at: Gauss integration point
 Contact stiffness factor FKN                  10.000    
 The resulting initial contact stiffness      0.30029E+06
 Default penetration tolerance factor FTOLN   0.10000    
 The resulting penetration tolerance          0.16478    
 Default opening contact stiffness OPSF will be used.
 Default tangent stiffness factor FKT          1.0000    
 Default elastic slip factor SLTOL            0.50000E-02
 The resulting elastic slip tolerance         0.11047E-01
 Update contact stiffness at each iteration
 Default Max. friction stress TAUMAX          0.10000E+21
 Average contact surface length                2.2093    
 Average contact pair depth                    1.6478    
 Default pinball region factor PINB           0.25000    
 The resulting pinball region                 0.41196    
 Initial penetration/gap is excluded.
 Bonded contact (always) is defined.

 *** NOTE ***                            CP =       4.031   TIME= 00:20:39
 Min.  Initial gap 3.874042131E-02 was detected between contact element  
 18244 and target element 18348.                                         
 The gap is closed due to initial settings.                              
  
 Max.  Geometric gap 6.22336138E-02 has been detected between contact    
 element 18252 and target element 18373.                                 
 ****************************************
  

 *** NOTE ***                            CP =       4.031   TIME= 00:20:39
 Symmetric Deformable- deformable contact pair identified by real        
 constant set 68 and contact element type 67 has been set up.  The       
 companion pair has real constant set ID 67.  Both pairs should have     
 the same behavior.                                                      
 ANSYS will deactivate the current pair and keep its companion pair,     
 resulting in asymmetric contact.                                        
 Contact algorithm: Augmented Lagrange method
 Contact detection at: Gauss integration point
 Contact stiffness factor FKN                  10.000    
 The resulting initial contact stiffness      0.30029E+06
 Default penetration tolerance factor FTOLN   0.10000    
 The resulting penetration tolerance          0.23311    
 Default opening contact stiffness OPSF will be used.
 Default tangent stiffness factor FKT          1.0000    
 Default elastic slip factor SLTOL            0.50000E-02
 The resulting elastic slip tolerance         0.23368E-01
 Update contact stiffness at each iteration
 Default Max. friction stress TAUMAX          0.10000E+21
 Average contact surface length                4.6737    
 Average contact pair depth                    2.3311    
 Default pinball region factor PINB           0.25000    
 The resulting pinball region                 0.58277    
 Initial penetration/gap is excluded.
 Bonded contact (always) is defined.

 *** NOTE ***                            CP =       4.031   TIME= 00:20:39
 Min.  Initial gap 3.848244943E-02 was detected between contact element  
 18306 and target element 18157.                                         
 The gap is closed due to initial settings.                              
  
 Max.  Geometric gap 5.681721781E-02 has been detected between contact   
 element 18309 and target element 18132.                                 
 ****************************************
  

 *** NOTE ***                            CP =       4.031   TIME= 00:20:39
 Symmetric Deformable- deformable contact pair identified by real        
 constant set 69 and contact element type 69 has been set up.  The       
 companion pair has real constant set ID 70.  Both pairs should have     
 the same behavior.                                                      
 ANSYS will keep the current pair and deactivate its companion pair,     
 resulting in asymmetric contact.                                        
 Contact algorithm: Augmented Lagrange method
 Contact detection at: Gauss integration point
 Contact stiffness factor FKN                  10.000    
 The resulting initial contact stiffness      0.29068E+06
 Default penetration tolerance factor FTOLN   0.10000    
 The resulting penetration tolerance          0.15444    
 Default opening contact stiffness OPSF will be used.
 Default tangent stiffness factor FKT          1.0000    
 Default elastic slip factor SLTOL            0.50000E-02
 The resulting elastic slip tolerance         0.12936E-01
 Update contact stiffness at each iteration
 Default Max. friction stress TAUMAX          0.10000E+21
 Average contact surface length                2.5871    
 Average contact pair depth                    1.5444    
 Default pinball region factor PINB           0.25000    
 The resulting pinball region                 0.38609    
 Initial penetration/gap is excluded.
 Bonded contact (always) is defined.

 *** NOTE ***                            CP =       4.031   TIME= 00:20:39
 No contact was detected for this contact pair.                          
 ****************************************
  

 *** NOTE ***                            CP =       4.031   TIME= 00:20:39
 Symmetric Deformable- deformable contact pair identified by real        
 constant set 70 and contact element type 69 has been set up.  The       
 companion pair has real constant set ID 69.  Both pairs should have     
 the same behavior.                                                      
 ANSYS will deactivate the current pair and keep its companion pair,     
 resulting in asymmetric contact.                                        
 Contact algorithm: Augmented Lagrange method
 Contact detection at: Gauss integration point
 Contact stiffness factor FKN                  10.000    
 The resulting initial contact stiffness      0.29068E+06
 Default penetration tolerance factor FTOLN   0.10000    
 The resulting penetration tolerance          0.24081    
 Default opening contact stiffness OPSF will be used.
 Default tangent stiffness factor FKT          1.0000    
 Default elastic slip factor SLTOL            0.50000E-02
 The resulting elastic slip tolerance         0.17921E-01
 Update contact stiffness at each iteration
 Default Max. friction stress TAUMAX          0.10000E+21
 Average contact surface length                3.5842    
 Average contact pair depth                    2.4081    
 Default pinball region factor PINB           0.25000    
 The resulting pinball region                 0.60203    
 Initial penetration/gap is excluded.
 Bonded contact (always) is defined.

 *** NOTE ***                            CP =       4.031   TIME= 00:20:39
 No contact was detected for this contact pair.                          
 ****************************************
  

 *** NOTE ***                            CP =       4.031   TIME= 00:20:39
 Symmetric Deformable- deformable contact pair identified by real        
 constant set 71 and contact element type 71 has been set up.  The       
 companion pair has real constant set ID 72.  Both pairs should have     
 the same behavior.                                                      
 ANSYS will keep the current pair and deactivate its companion pair,     
 resulting in asymmetric contact.                                        
 Contact algorithm: Augmented Lagrange method
 Contact detection at: Gauss integration point
 Contact stiffness factor FKN                  10.000    
 The resulting initial contact stiffness      0.54165E+06
 Default penetration tolerance factor FTOLN   0.10000    
 The resulting penetration tolerance          0.12923    
 Default opening contact stiffness OPSF will be used.
 Default tangent stiffness factor FKT          1.0000    
 Default elastic slip factor SLTOL            0.50000E-02
 The resulting elastic slip tolerance         0.11754E-01
 Update contact stiffness at each iteration
 Default Max. friction stress TAUMAX          0.10000E+21
 Average contact surface length                2.3508    
 Average contact pair depth                    1.2923    
 Default pinball region factor PINB           0.25000    
 The resulting pinball region                 0.32309    
 Initial penetration/gap is excluded.
 Bonded contact (always) is defined.

 *** NOTE ***                            CP =       4.031   TIME= 00:20:39
 Max.  Initial penetration 3.80449226E-09 was detected between contact   
 element 18524 and target element 18713.                                 
  
 Max.  Geometric gap 8.384392059E-02 has been detected between contact   
 element 18527 and target element 18703.                                 
 ****************************************
  

 *** NOTE ***                            CP =       4.031   TIME= 00:20:39
 Symmetric Deformable- deformable contact pair identified by real        
 constant set 72 and contact element type 71 has been set up.  The       
 companion pair has real constant set ID 71.  Both pairs should have     
 the same behavior.                                                      
 ANSYS will deactivate the current pair and keep its companion pair,     
 resulting in asymmetric contact.                                        
 Contact algorithm: Augmented Lagrange method
 Contact detection at: Gauss integration point
 Contact stiffness factor FKN                  10.000    
 The resulting initial contact stiffness      0.54165E+06
 Default penetration tolerance factor FTOLN   0.10000    
 The resulting penetration tolerance          0.88483E-01
 Default opening contact stiffness OPSF will be used.
 Default tangent stiffness factor FKT          1.0000    
 Default elastic slip factor SLTOL            0.50000E-02
 The resulting elastic slip tolerance         0.35804E-02
 Update contact stiffness at each iteration
 Default Max. friction stress TAUMAX          0.10000E+21
 Average contact surface length               0.71608    
 Average contact pair depth                   0.88483    
 Default pinball region factor PINB           0.25000    
 The resulting pinball region                 0.22121    
 Initial penetration/gap is excluded.
 Bonded contact (always) is defined.

 *** NOTE ***                            CP =       4.031   TIME= 00:20:39
 Max.  Initial penetration 3.809570858E-04 was detected between contact  
 element 18538 and target element 18473.                                 
 You may move entire target surface by : x= -2.234988221E-04, y=         
 2.126613594E-04, z= 2.234988231E-04,to reduce initial penetration.      
  
 Max.  Geometric gap 6.776772569E-02 has been detected between contact   
 element 18607 and target element 18476.                                 
 ****************************************
  

 *** NOTE ***                            CP =       4.031   TIME= 00:20:39
 Symmetric Deformable- deformable contact pair identified by real        
 constant set 73 and contact element type 73 has been set up.  The       
 companion pair has real constant set ID 74.  Both pairs should have     
 the same behavior.                                                      
 ANSYS will keep the current pair and deactivate its companion pair,     
 resulting in asymmetric contact.                                        
 Contact algorithm: Augmented Lagrange method
 Contact detection at: Gauss integration point
 Contact stiffness factor FKN                  10.000    
 The resulting initial contact stiffness      0.31632E+06
 Default penetration tolerance factor FTOLN   0.10000    
 The resulting penetration tolerance          0.16266    
 Default opening contact stiffness OPSF will be used.
 Default tangent stiffness factor FKT          1.0000    
 Default elastic slip factor SLTOL            0.50000E-02
 The resulting elastic slip tolerance         0.10903E-01
 Update contact stiffness at each iteration
 Default Max. friction stress TAUMAX          0.10000E+21
 Average contact surface length                2.1805    
 Average contact pair depth                    1.6266    
 Default pinball region factor PINB           0.25000    
 The resulting pinball region                 0.40665    
 Initial penetration/gap is excluded.
 Bonded contact (always) is defined.

 *** NOTE ***                            CP =       4.031   TIME= 00:20:39
 Min.  Initial gap 4.476098674E-02 was detected between contact element  
 18833 and target element 18953.                                         
 The gap is closed due to initial settings.                              
  
 Max.  Geometric gap 6.2233609E-02 has been detected between contact     
 element 18835 and target element 18973.                                 
 ****************************************
  

 *** NOTE ***                            CP =       4.031   TIME= 00:20:39
 Symmetric Deformable- deformable contact pair identified by real        
 constant set 74 and contact element type 73 has been set up.  The       
 companion pair has real constant set ID 73.  Both pairs should have     
 the same behavior.                                                      
 ANSYS will deactivate the current pair and keep its companion pair,     
 resulting in asymmetric contact.                                        
 Contact algorithm: Augmented Lagrange method
 Contact detection at: Gauss integration point
 Contact stiffness factor FKN                  10.000    
 The resulting initial contact stiffness      0.31632E+06
 Default penetration tolerance factor FTOLN   0.10000    
 The resulting penetration tolerance          0.22129    
 Default opening contact stiffness OPSF will be used.
 Default tangent stiffness factor FKT          1.0000    
 Default elastic slip factor SLTOL            0.50000E-02
 The resulting elastic slip tolerance         0.21313E-01
 Update contact stiffness at each iteration
 Default Max. friction stress TAUMAX          0.10000E+21
 Average contact surface length                4.2627    
 Average contact pair depth                    2.2129    
 Default pinball region factor PINB           0.25000    
 The resulting pinball region                 0.55323    
 Initial penetration/gap is excluded.
 Bonded contact (always) is defined.

 *** NOTE ***                            CP =       4.031   TIME= 00:20:39
 Min.  Initial gap 4.253350695E-02 was detected between contact element  
 18895 and target element 18788.                                         
 The gap is closed due to initial settings.                              
  
 Max.  Geometric gap 5.89257936E-02 has been detected between contact    
 element 18908 and target element 18738.                                 
 ****************************************
  

 *** NOTE ***                            CP =       4.031   TIME= 00:20:39
 Symmetric Deformable- deformable contact pair identified by real        
 constant set 75 and contact element type 75 has been set up.  The       
 companion pair has real constant set ID 76.  Both pairs should have     
 the same behavior.                                                      
 ANSYS will keep the current pair and deactivate its companion pair,     
 resulting in asymmetric contact.                                        
 Contact algorithm: Augmented Lagrange method
 Contact detection at: Gauss integration point
 Contact stiffness factor FKN                  10.000    
 The resulting initial contact stiffness      0.26997E+06
 Default penetration tolerance factor FTOLN   0.10000    
 The resulting penetration tolerance          0.15509    
 Default opening contact stiffness OPSF will be used.
 Default tangent stiffness factor FKT          1.0000    
 Default elastic slip factor SLTOL            0.50000E-02
 The resulting elastic slip tolerance         0.13547E-01
 Update contact stiffness at each iteration
 Default Max. friction stress TAUMAX          0.10000E+21
 Average contact surface length                2.7094    
 Average contact pair depth                    1.5509    
 Default pinball region factor PINB           0.25000    
 The resulting pinball region                 0.38771    
 Initial penetration/gap is excluded.
 Bonded contact (always) is defined.

 *** NOTE ***                            CP =       4.031   TIME= 00:20:39
 No contact was detected for this contact pair.                          
 ****************************************
  

 *** NOTE ***                            CP =       4.031   TIME= 00:20:39
 Symmetric Deformable- deformable contact pair identified by real        
 constant set 76 and contact element type 75 has been set up.  The       
 companion pair has real constant set ID 75.  Both pairs should have     
 the same behavior.                                                      
 ANSYS will deactivate the current pair and keep its companion pair,     
 resulting in asymmetric contact.                                        
 Contact algorithm: Augmented Lagrange method
 Contact detection at: Gauss integration point
 Contact stiffness factor FKN                  10.000    
 The resulting initial contact stiffness      0.26997E+06
 Default penetration tolerance factor FTOLN   0.10000    
 The resulting penetration tolerance          0.25929    
 Default opening contact stiffness OPSF will be used.
 Default tangent stiffness factor FKT          1.0000    
 Default elastic slip factor SLTOL            0.50000E-02
 The resulting elastic slip tolerance         0.18160E-01
 Update contact stiffness at each iteration
 Default Max. friction stress TAUMAX          0.10000E+21
 Average contact surface length                3.6320    
 Average contact pair depth                    2.5929    
 Default pinball region factor PINB           0.25000    
 The resulting pinball region                 0.64822    
 Initial penetration/gap is excluded.
 Bonded contact (always) is defined.

 *** NOTE ***                            CP =       4.031   TIME= 00:20:39
 No contact was detected for this contact pair.                          
 ****************************************
  

 *** NOTE ***                            CP =       4.031   TIME= 00:20:39
 Symmetric Deformable- deformable contact pair identified by real        
 constant set 77 and contact element type 77 has been set up.  The       
 companion pair has real constant set ID 78.  Both pairs should have     
 the same behavior.                                                      
 ANSYS will keep the current pair and deactivate its companion pair,     
 resulting in asymmetric contact.                                        
 Contact algorithm: Augmented Lagrange method
 Contact detection at: Gauss integration point
[...]
        2        48  SOLID186      0.016   0.000326
        3       378  SOLID187      0.016   0.000041
        4       378  SOLID187      0.016   0.000041
        5       446  SOLID187      0.031   0.000070
        6       368  SOLID187      0.062   0.000170
        7      1086  SOLID187      0.109   0.000101
        8      1072  SOLID187      0.109   0.000102
        9       102  SOLID186      0.031   0.000306
       10       190  SOLID187      0.000   0.000000
       11       190  SOLID187      0.031   0.000164
       12       190  SOLID187      0.016   0.000082
       13       190  SOLID187      0.016   0.000082
       14       190  SOLID187      0.016   0.000082
       15       190  SOLID187      0.016   0.000082
       16       190  SOLID187      0.000   0.000000
       17       190  SOLID187      0.016   0.000082
       18       190  SOLID187      0.031   0.000164
       19       190  SOLID187      0.000   0.000000
       20       190  SOLID187      0.000   0.000000
       21       190  SOLID187      0.016   0.000082
       22       190  SOLID187      0.031   0.000164
       23       190  SOLID187      0.047   0.000247
       24       190  SOLID187      0.016   0.000082
       25       190  SOLID187      0.016   0.000082
       26       190  SOLID187      0.016   0.000082
       27       190  SOLID187      0.000   0.000000
       28       190  SOLID187      0.000   0.000000
       29       190  SOLID187      0.016   0.000082
       30       190  SOLID187      0.031   0.000164
       31       190  SOLID187      0.047   0.000247
       32       190  SOLID187      0.047   0.000247
       33       190  SOLID187      0.000   0.000000
       34       190  SOLID187      0.000   0.000000
       35       190  SOLID187      0.078   0.000411
       36       190  SOLID187      0.047   0.000247
       37       190  SOLID187      0.016   0.000082
       38       190  SOLID187      0.000   0.000000
       39       190  SOLID187      0.016   0.000082
       40       190  SOLID187      0.031   0.000164
       41       190  SOLID187      0.016   0.000082
       42       190  SOLID187      0.031   0.000164
       43       190  SOLID187      0.000   0.000000
       44       190  SOLID187      0.016   0.000082
       45      1209  SOLID186      0.391   0.000323
       46      1209  SOLID186      0.281   0.000233
       47      1209  SOLID186      0.391   0.000323
       48      1209  SOLID186      0.281   0.000233
       49      1209  SOLID186      0.266   0.000220
       50       128  SOLID186      0.016   0.000122
       51       128  SOLID186      0.094   0.000732
       52       128  SOLID186      0.031   0.000244
       53       128  SOLID186      0.016   0.000122
       54       128  SOLID186      0.031   0.000244
       55        60  CONTA174      0.016   0.000260
       56        60  TARGE170      0.016   0.000260
       57       104  CONTA174      0.016   0.000150
       58       104  TARGE170      0.000   0.000000
       59       104  CONTA174      0.016   0.000150
       60       104  TARGE170      0.000   0.000000
       61        30  CONTA174      0.000   0.000000
       62        30  TARGE170      0.000   0.000000
       63        36  CONTA174      0.000   0.000000
       64        36  TARGE170      0.000   0.000000
       65        98  CONTA174      0.031   0.000319
       66        98  TARGE170      0.000   0.000000
       67       129  CONTA174      0.031   0.000242
       68       129  TARGE170      0.000   0.000000
       69        44  CONTA174      0.000   0.000000
       70        44  TARGE170      0.000   0.000000
       71       124  CONTA174      0.031   0.000252
       72       124  TARGE170      0.000   0.000000
       73       131  CONTA174      0.031   0.000239
       74       131  TARGE170      0.000   0.000000
       75        40  CONTA174      0.016   0.000391
       76        40  TARGE170      0.000   0.000000
       77       124  CONTA174      0.000   0.000000
       78       124  TARGE170      0.000   0.000000
       79         5  CONTA174      0.000   0.000000
       80         5  TARGE170      0.000   0.000000
       81        17  CONTA174      0.000   0.000000
       82        17  TARGE170      0.000   0.000000
       83       691  CONTA174      0.156   0.000226
       84       691  TARGE170      0.016   0.000023
       85       691  CONTA174      0.094   0.000136
       86       691  TARGE170      0.016   0.000023
       87        38  CONTA174      0.000   0.000000
       88        38  TARGE170      0.000   0.000000
       89        68  CONTA174      0.016   0.000230
       90        68  TARGE170      0.000   0.000000
       91       691  CONTA174      0.094   0.000136
       92       691  TARGE170      0.047   0.000068
       93       691  CONTA174      0.094   0.000136
       94       691  TARGE170      0.000   0.000000
       95       691  CONTA174      0.094   0.000136
       96       691  TARGE170      0.016   0.000023
       97        38  CONTA174      0.000   0.000000
       98        38  TARGE170      0.000   0.000000
       99        82  CONTA174      0.000   0.000000
      100        82  TARGE170      0.000   0.000000
      101        68  CONTA174      0.000   0.000000
      102        68  TARGE170      0.000   0.000000
      103       214  CONTA174      0.000   0.000000
      104       214  TARGE170      0.000   0.000000
      105       132  CONTA174      0.000   0.000000
      106       132  TARGE170      0.000   0.000000
      107       176  CONTA174      0.000   0.000000
      108       176  TARGE170      0.000   0.000000
      109       129  CONTA174      0.000   0.000000
      110       129  TARGE170      0.000   0.000000
      111       218  CONTA174      0.016   0.000072
      112       218  TARGE170      0.000   0.000000
      113       135  CONTA174      0.016   0.000116
      114       135  TARGE170      0.000   0.000000
      115       213  CONTA174      0.016   0.000073
      116       213  TARGE170      0.000   0.000000
      117       135  CONTA174      0.000   0.000000
      118       135  TARGE170      0.000   0.000000
      119       176  CONTA174      0.000   0.000000
      120       176  TARGE170      0.016   0.000089
      121       129  CONTA174      0.016   0.000121
      122       129  TARGE170      0.000   0.000000
      123       209  CONTA174      0.062   0.000299
      124       209  TARGE170      0.000   0.000000
      125       132  CONTA174      0.000   0.000000
      126       132  TARGE170      0.000   0.000000
      127       201  CONTA174      0.000   0.000000
      128       201  TARGE170      0.000   0.000000
      129       130  CONTA174      0.000   0.000000
      130       130  TARGE170      0.000   0.000000
      131       193  CONTA174      0.000   0.000000
      132       193  TARGE170      0.000   0.000000
      133       124  CONTA174      0.016   0.000126
      134       124  TARGE170      0.000   0.000000
      135       190  CONTA174      0.000   0.000000
      136       190  TARGE170      0.000   0.000000
      137       126  CONTA174      0.000   0.000000
      138       126  TARGE170      0.000   0.000000
      139       187  CONTA174      0.031   0.000167
      140       187  TARGE170      0.000   0.000000
      141       129  CONTA174      0.000   0.000000
      142       129  TARGE170      0.000   0.000000
      143       211  CONTA174      0.016   0.000074
      144       211  TARGE170      0.000   0.000000
      145       132  CONTA174      0.016   0.000118
      146       132  TARGE170      0.000   0.000000
      147       175  CONTA174      0.000   0.000000
      148       175  TARGE170      0.000   0.000000
      149       128  CONTA174      0.016   0.000122
      150       128  TARGE170      0.000   0.000000
      151       188  CONTA174      0.016   0.000083
      152       188  TARGE170      0.000   0.000000
      153       130  CONTA174      0.016   0.000120
      154       130  TARGE170      0.016   0.000120
      155       216  CONTA174      0.016   0.000072
      156       216  TARGE170      0.000   0.000000
      157       131  CONTA174      0.000   0.000000
      158       131  TARGE170      0.000   0.000000
      159       204  CONTA174      0.000   0.000000
      160       204  TARGE170      0.000   0.000000
      161       132  CONTA174      0.000   0.000000
      162       132  TARGE170      0.000   0.000000
      163       176  CONTA174      0.016   0.000089
      164       176  TARGE170      0.000   0.000000
      165       129  CONTA174      0.000   0.000000
      166       129  TARGE170      0.000   0.000000
      167       206  CONTA174      0.000   0.000000
      168       206  TARGE170      0.016   0.000076
      169       130  CONTA174      0.000   0.000000
      170       130  TARGE170      0.016   0.000120
      171       221  CONTA174      0.016   0.000071
      172       221  TARGE170      0.000   0.000000
      173       132  CONTA174      0.000   0.000000
      174       132  TARGE170      0.000   0.000000
      175       176  CONTA174      0.000   0.000000
      176       176  TARGE170      0.000   0.000000
      177       129  CONTA174      0.016   0.000121
      178       129  TARGE170      0.000   0.000000
      179       216  CONTA174      0.031   0.000145
      180       216  TARGE170      0.000   0.000000
      181       132  CONTA174      0.031   0.000237
      182       132  TARGE170      0.000   0.000000
      183       207  CONTA174      0.031   0.000151
      184       207  TARGE170      0.000   0.000000
      185       132  CONTA174      0.016   0.000118
      186       132  TARGE170      0.000   0.000000
      187       212  CONTA174      0.016   0.000074
      188       212  TARGE170      0.000   0.000000
      189       132  CONTA174      0.000   0.000000
      190       132  TARGE170      0.000   0.000000
      191       176  CONTA174      0.000   0.000000
      192       176  TARGE170      0.000   0.000000
      193       129  CONTA174      0.016   0.000121
      194       129  TARGE170      0.000   0.000000
      195       213  CONTA174      0.016   0.000073
      196       213  TARGE170      0.000   0.000000
      197       135  CONTA174      0.000   0.000000
      198       135  TARGE170      0.000   0.000000
      199       213  CONTA174      0.031   0.000147
      200       213  TARGE170      0.000   0.000000
      201       135  CONTA174      0.000   0.000000
      202       135  TARGE170      0.000   0.000000
      203       176  CONTA174      0.000   0.000000
      204       176  TARGE170      0.000   0.000000
      205       129  CONTA174      0.031   0.000242
      206       129  TARGE170      0.000   0.000000
      207       211  CONTA174      0.000   0.000000
      208       211  TARGE170      0.000   0.000000
      209       132  CONTA174      0.031   0.000237
      210       132  TARGE170      0.016   0.000118
      211       201  CONTA174      0.016   0.000078
      212       201  TARGE170      0.000   0.000000
      213       127  CONTA174      0.016   0.000123
      214       127  TARGE170      0.016   0.000123
      215       211  CONTA174      0.000   0.000000
      216       211  TARGE170      0.016   0.000074
      217       131  CONTA174      0.031   0.000239
      218       131  TARGE170      0.000   0.000000
      219       169  CONTA174      0.016   0.000092
      220       169  TARGE170      0.000   0.000000
      221       128  CONTA174      0.031   0.000244
      222       128  TARGE170      0.000   0.000000
      223       201  CONTA174      0.016   0.000078
      224       201  TARGE170      0.000   0.000000
      225       134  CONTA174      0.031   0.000233
      226       134  TARGE170      0.000   0.000000
      227       199  CONTA174      0.016   0.000079
      228       199  TARGE170      0.000   0.000000
      229       132  CONTA174      0.016   0.000118
      230       132  TARGE170      0.000   0.000000
      231       166  CONTA174      0.000   0.000000
      232       166  TARGE170      0.000   0.000000
      233       124  CONTA174      0.016   0.000126
      234       124  TARGE170      0.000   0.000000
      235       218  CONTA174      0.016   0.000072
      236       218  TARGE170      0.016   0.000072
      237       129  CONTA174      0.016   0.000121
      238       129  TARGE170      0.016   0.000121
      239       187  CONTA174      0.016   0.000084
      240       187  TARGE170      0.016   0.000084
      241       128  CONTA174      0.016   0.000122
      242       128  TARGE170      0.000   0.000000
      243         2  SURF154       0.000   0.000000
 Time at end of element matrix formulation CP = 9.890625.                
     FORCE CONVERGENCE VALUE  =   47.14      CRITERION=  0.2405    

 DISTRIBUTED SPARSE MATRIX DIRECT SOLVER.
  Number of equations =      185961,    Maximum wavefront =   1917

  Local memory allocated for solver              =    526.726 MB
  Local memory required for in-core solution     =    472.837 MB
  Local memory required for out-of-core solution =    286.302 MB

  Total memory allocated for solver              =   1017.072 MB
  Total memory required for in-core solution     =    907.597 MB
  Total memory required for out-of-core solution =    481.913 MB

 *** NOTE ***                            CP =      11.719   TIME= 00:20:46
 The Distributed Sparse Matrix Solver is currently running in the        
 in-core memory mode.  This memory mode uses the most amount of memory   
 in order to avoid using the hard drive as much as possible, which most  
 often results in the fastest solution time.  This mode is recommended   
 if enough physical memory is present to accommodate all of the solver   
 data.                                                                   
 curEqn=  45381  totEqn=  94329 Job CP sec=     13.891
      Factor Done=  50% Factor Wall sec=      1.031 rate=    7261.3 Mflops
 curEqn=  94329  totEqn=  94329 Job CP sec=     15.109
      Factor Done= 100% Factor Wall sec=      2.242 rate=    6626.0 Mflops
 Distributed sparse solver maximum pivot= 2175331.3 at node 54689 UY.    
 Distributed sparse solver minimum pivot= -2.381671752E-08 at node 604   
 UY.                                                                     
 Distributed sparse solver minimum pivot in absolute value=              
 7.914806854E-09 at node 604 UZ.                                         

 *** WARNING ***                         CP =      15.109   TIME= 00:20:49
 There is at least 1 small equation solver pivot term (e.g., at the UZ   
 degree of freedom of node 604) which may indicate a numerically         
 unstable model.  Please check your results carefully.                   

 *** ERROR ***                           CP =      15.234   TIME= 00:20:49
 The value of UY at node 338 is 1.118967604E+10.  It is greater than the 
 current limit of 1000000 (which can be reset on the NCNV command).      
 This generally indicates rigid body motion as a result of an            
 unconstrained model.  Verify that your model is properly constrained.   

 *** ERROR ***                           CP =      15.234   TIME= 00:20:49
 *** MESSAGE CONTINUATION ---- DIAGNOSTIC INFORMATION ***                
 If one or more parts of the model are held together only by contact     
 verify that the contact surfaces are closed.  Also make sure that       
 there are constraints (or friction) in the sliding direction even if    
 no load is applied in that direction.  You can use the CNCHECK command  
 to check the initial contact status in the SOLUTION module.             




         R E S T A R T   I N F O R M A T I O N

 REASON FOR TERMINATION. . . . . . . . . .DOF LIMIT EXCEEDED                      
 RESTART BY RE-RUNNING THE ANALYSIS

 ALL CURRENT ANSYS DATA WRITTEN TO FILE NAME= file.db
  FOR POSSIBLE RESUME FROM THIS POINT





 NUMBER OF WARNING MESSAGES ENCOUNTERED=          6
 NUMBER OF ERROR   MESSAGES ENCOUNTERED=          2



 ***** PROBLEM TERMINATED BY INDICATED ERROR(S) OR BY END OF INPUT DATA *****

+--------- D I S T R I B U T E D   A N S Y S   S T A T I S T I C S ------------+

Release: Release 18.2       Build: 18.2       Update: UP20170726   Platform: WINDOWS x64 
Date Run: 12/18/2017   Time: 00:20     Process ID: 8272
Operating System: Windows 10  (Build: 16299)

Processor Model: Intel(R) Core(TM) i5-4260U CPU @ 1.40GHz

Compiler: Intel(R) FORTRAN Compiler Version 15.0.7  (Build: 20160518)
          Intel(R) C/C++ Compiler Version 15.0.7  (Build: 20160518)
          Intel(R) Math Kernel Library Version 2017.0.2 Product Build 20170126

Number of machines requested            :    1
Total number of cores available         :    4
Number of physical cores available      :    2
Number of processes requested           :    2
Number of threads per process requested :    1
Total number of cores requested         :    2 (Distributed Memory Parallel)               
MPI Type: INTELMPI
MPI Version: Intel(R) MPI Library 5.1.3 for Windows* OS


GPU Acceleration: Not Requested

Job Name: file0
Input File: dummy.dat

  Core                Machine Name   Working Directory
 -----------------------------------------------------
     0             DESKTOP-JNA309M   C:\Users\zehir\Desktop\ANSYS Analysis\_ProjectScratch\ScrEF84
     1             DESKTOP-JNA309M   C:\Users\zehir\Desktop\ANSYS Analysis\_ProjectScratch\ScrEF84
 
Latency time from master to core     1 =    1.185 microseconds
 
Communication speed from master to core     1 =  2085.51 MB/sec

Total CPU time for main thread                    :       13.5 seconds
Total CPU time summed for all threads             :       16.0 seconds

Elapsed time spent pre-processing model (/PREP7)  :        0.6 seconds
Elapsed time spent solution - preprocessing       :        2.6 seconds
Elapsed time spent computing solution             :        9.9 seconds
Elapsed time spent solution - postprocessing      :        0.1 seconds
Elapsed time spent post-processing model (/POST1) :        0.0 seconds
 
Equation solver used                              :            Sparse (symmetric)
Equation solver computational rate                :    14075.1 Mflops
Equation solver effective I/O rate                :     9212.2 MB/sec

Maximum total memory used                         :     1226.0 MB
Maximum total memory allocated                    :     3136.0 MB
Total physical memory available                   :          4 GB

+------ E N D   D I S T R I B U T E D   A N S Y S   S T A T I S T I C S -------+


 *---------------------------------------------------------------------------*
 |                                                                           |
 |                       DISTRIBUTED ANSYS RUN COMPLETED                     |
 |                                                                           |
 |---------------------------------------------------------------------------|
 |                                                                           |
 | Ansys Release 18.2          Build 18.2         UP20170726     WINDOWS x64 |
 |                                                                           |
 |---------------------------------------------------------------------------|
 |                                                                           |
 | Database Requested(-db)  1024 MB    Scratch Memory Requested      1024 MB |
 | Maximum Database Used      66 MB    Maximum Scratch Memory Used    618 MB |
 |                                                                           |
 |---------------------------------------------------------------------------|
 |                                                                           |
 |        CP Time      (sec) =         16.031       Time  =  00:20:51        |
 |        Elapsed Time (sec) =         17.000       Date  =  12/18/2017      |
 |                                                                           |
 *---------------------------------------------------------------------------*
