/batch
/config,noeldb,1     ! force off writing results to database
*get,_wallstrt,active,,time,wall
! ANSYS input file written by Workbench version 18.2 RELEASE
! File used for geometry attach: C:\Users\zehir\Desktop\Prosthetic Handv5\Link_Connector.x_t
/title,Connection_Points_Analysis--Static Structural (A5)
*DIM,_wb_ProjectScratch_dir,string,248
_wb_ProjectScratch_dir(1) = 'C:\Users\zehir\Desktop\_ProjectScratch\Scr728E\'
*DIM,_wb_SolverFiles_dir,string,248
_wb_SolverFiles_dir(1) = 'C:\Users\zehir\Desktop\Connection_Points_Analysis_files\dp0\SYS\MECH\'
*DIM,_wb_userfiles_dir,string,248
_wb_userfiles_dir(1) = 'C:\Users\zehir\Desktop\Connection_Points_Analysis_files\user_files\'
/com,--- Data in consistent NMM units. See Solving Units in the help system for more information.
/units,MPA
/nopr
/wb,file,start              !  signify a WB generated input file
/prep7
! Turn off shape checking because checks already performed inside WB mesher.
! See help system for more information.
SHPP,OFF,,NOWARN
/nolist
etcon,set             ! allow ANSYS to choose best KEYOP's for 180x elements
/com,*********** Nodes for the whole assembly ***********
nblock,3,,1299
(1i9,3e20.9e3)
        1    1.500000000E+000    1.836970199E-016    4.000000000E+000
        2    9.352347028E-001    1.172747224E+000    4.000000000E+000
        3   -3.337814009E-001    1.462391868E+000    4.000000000E+000
        4   -1.351453302E+000    6.508256087E-001    4.000000000E+000
        5   -1.351453302E+000   -6.508256087E-001    4.000000000E+000
        6   -3.337814009E-001   -1.462391868E+000    4.000000000E+000
        7    9.352347028E-001   -1.172747224E+000    4.000000000E+000
        8    1.500000000E+000    1.836970199E-016    0.000000000E+000
        9    9.352347028E-001    1.172747224E+000    0.000000000E+000
       10   -3.337814009E-001    1.462391868E+000    0.000000000E+000
       11   -1.351453302E+000    6.508256087E-001    0.000000000E+000
       12   -1.351453302E+000   -6.508256087E-001    0.000000000E+000
       13   -3.337814009E-001   -1.462391868E+000    0.000000000E+000
       14    9.352347028E-001   -1.172747224E+000    0.000000000E+000
       15    2.500000000E+000    3.061616998E-016    6.000000000E+000
       16    2.103133832E+000    1.351602044E+000    6.000000000E+000
       17    1.038537533E+000    2.274079988E+000    6.000000000E+000
       18   -3.557870957E-001    2.474553605E+000    6.000000000E+000
       19   -1.637151835E+000    1.889373936E+000    6.000000000E+000
       20   -2.398732434E+000    7.043313921E-001    6.000000000E+000
! ... 1162 like lines cut
/wb,elem,start            !  set before creation of elements
/com,*********** Elements for Body 1 "Part 1" ***********
et,1,187
eblock,19,solid,,571
(19i9)
        1        1        1        1        0        0        0        0       10        0        1       51      187       89       80      514      698      512      510
      646      644
        1        1        1        1        0        0        0        0       10        0        2      201      210      203      205     1163     1168     1161     1162
     1175     1166
        1        1        1        1        0        0        0        0       10        0        3       49       93      187       80      494      717      496      492
      645      646
        1        1        1        1        0        0        0        0       10        0        4       78       87      209      190      633      690      636      635
      689     1135
        1        1        1        1        0        0        0        0       10        0        5       87      187      209      190      688     1126      690      689
     1123     1135
        1        1        1        1        0        0        0        0       10        0        6       51      187       87       89      514      688      511      512
      698      685
        1        1        1        1        0        0        0        0       10        0        7       52       87      209       78      521      690      523      520
      633      636
        1        1        1        1        0        0        0        0       10        0        8       49       58       70       59      488      562      491      489
      560      566
        1        1        1        1        0        0        0        0       10        0        9       65       76      191       66      600      625      602      599
      604      605
        1        1        1        1        0        0        0        0       10        0       10       49       93       82      187      494      654      493      496
      717      657
! ... 1123 like lines cut
!Material Id = {156C413D-BEAF-4D74-9C72-8DEEB08BD9B4}
/wb,elem,end               !  done creating elements
/com,*********** Send User Defined Coordinate System(s) ***********
csys,0
toffst,273.15,  ! Temperature offset from absolute zero
/com,*********** Set Reference Temperature ***********
tref,22.
/wb,mat,start              !  starting to send materials
/com,*********** Send Materials ***********
MP,DENS,1,7.85e-09,	! tonne mm^-3
MP,ALPX,1,1.2e-05,	! C^-1
MP,C,1,434000000,	! mm^2 s^-2 C^-1
MP,KXX,1,60.5,	! tonne mm s^-3 C^-1
MP,RSVX,1,0.00017,	! ohm mm
MP,EX,1,200000,	! tonne s^-2 mm^-1
MP,NUXY,1,0.3,
MP,MURX,1,10000,

/wb,mat,end                !  done sending materials
!************************* Model Summary ********************
!Part 1,	Structural Steel,	matid,	1
!************************* End Model Summary ********************
! get the diagonal of the bounding box. Needed later for other things
*get,_xmin,node,,mnloc,x
*get,_ymin,node,,mnloc,y
*get,_zmin,node,,mnloc,z
*get,_xmax,node,,mxloc,x
*get,_ymax,node,,mxloc,y
*get,_zmax,node,,mxloc,z
_ASMDIAG=(_xmax-_xmin)*(_xmax-_xmin)+(_ymax-_ymin)*(_ymax-_ymin)+(_zmax-_zmin)*(_zmax-_zmin)
_ASMDIAG=SQRT(_ASMDIAG)
/wb,contact,start          !  starting to send contact
/wb,contact,end            !  done creating contacts
/golist
/wb,load,start             !  starting to send loads
/com,*********** Fixed Supports ***********
CMBLOCK,_FIXEDSU,NODE,       98
(8i10)
         1         2         3         4         5         6         7         8
         9        10        11        12        13        14       171       172
       173       174       175       176       177       178       179       180
       181       182       183       184       215       216       220       221
       226       229       230       234       238       239       243       246
       250       254       255       256       261       265       266       271
       272       276       277       278       279       281       283       284
       286       289       290       292       294       295       297       298
       299       301       302       303       305       306      1063      1064
      1065      1066      1069      1070      1071      1073      1074      1075
      1076      1079      1080      1081      1083      1084      1085      1086
      1089      1090      1091      1093      1097      1101      1102      1105
      1106      1108
cmsel,s,_FIXEDSU
d,all,all
nsel,all
/com,*********** Define Force Using Surface Effect Elements ***********
local,12,0,0.,0.,0.,-0.,0.,0.
csys,0
et,2,156
keyop,2,5,1   ! No orientation node
eblock,10,,,9
(15i9)
      572        2        2        2       12       51       50      499
      573        2        2        2       12       50       49      487
      574        2        2        2       12       52       51      505
      575        2        2        2       12       53       52      517
      576        2        2        2       12       47       48      472
      577        2        2        2       12       46       47      462
      578        2        2        2       12       48       49      481
      579        2        2        2       12       53       54      525
      580        2        2        2       12       46       54      463
-1
esel,s,type,,2
keyop,2,2,1                ! Apply load in local coordinate system
keyop,2,7,1                ! Use original area so load is constant in large deformation
esel,all

*DIM,_loadvari36x,TABLE,2,1,1,TIME,
! Time values
_loadvari36x(1,0,1) = 0.
_loadvari36x(2,0,1) = 1.
! Load values
_loadvari36x(1,1,1) = 0.
_loadvari36x(2,1,1) = 0.


*DIM,_loadvari36y,TABLE,2,1,1,TIME,
! Time values
_loadvari36y(1,0,1) = 0.
_loadvari36y(2,0,1) = 1.
! Load values
_loadvari36y(1,1,1) = 0.
_loadvari36y(2,1,1) = -16.3249159000838


*DIM,_loadvari36z,TABLE,2,1,1,TIME,
! Time values
_loadvari36z(1,0,1) = 0.
_loadvari36z(2,0,1) = 1.
! Load values
_loadvari36z(1,1,1) = 0.
_loadvari36z(2,1,1) = 0.

/gst,on,on
fini
*get,_numnode,node,0,count
*get,_numelem,elem,0,count
*get, _MAXELEMNUM, elem, 0, NUM, MAX
*get, _MAXNODENUM, node, 0, NUM, MAX
*get, _MAXELEMTYPE, etyp, 0, NUM, MAX
*get, _MAXREALCONST, real, 0, NUM, MAX
/go
/wb,load,end               !  done creating loads
/com,--- Number of total nodes = %_numnode%
/com,--- Number of contact elements = 9
/com,--- Number of spring elements = 0
/com,--- Number of bearing elements = 0
/com,--- Number of solid elements = 571
/com,--- Number of condensed parts = 0
/com,--- Number of total elements = %_numelem%
*get,_wallbsol,active,,time,wall
/com,****************************************************************************
/com,*************************    SOLUTION       ********************************
/com,****************************************************************************
/solu
antype,0                   ! static analysis
eqsl,pcg,1e-8,,,,,,1
cntr,print,1               ! print out contact info and also make no initial contact an error
dmpoption,emat,no             ! Don't combine emat file for DANSYS
dmpoption,esav,no             ! Don't combine esav file for DANSYS
nldiag,cont,iter           ! print out contact info each equilibrium iteration
rescontrol,,none                 ! Do not keep any restart files
/com,****************************************************
/com,******************* SOLVE FOR LS 1 OF 1 ****************
esel,s,type,,2
nsle
sfe,all,1,pres,1,%_loadvari36x%
sfe,all,2,pres,1,%_loadvari36y%
sfe,all,3,pres,1,%_loadvari36z%
nsel,all
esel,all
/nopr
/gopr
nsub,1,1,1
time,1.
outres,erase
outres,all,none
outres,nsol,all
outres,rsol,all
outres,strs,all
outres,epel,all
outres,eppl,all
stabilize,off                   ! Stabilization turned OFF by user
! *********** WB SOLVE COMMAND ***********
! check interactive state
*get,ANSINTER_,active,,int
*if,ANSINTER_,ne,0,then
/eof
*endif
solve
/com *************** Write FE CONNECTORS ********* 
CEWRITE,file,ce,,INTE
/com,****************************************************
/com,*************** FINISHED SOLVE FOR LS 1 *************
*get,_wallasol,active,,time,wall
/nopr
*get,_numnode,node,0,count
*get,_numelem,elem,0,count
*get, _MAXELEMNUM, elem, 0, NUM, MAX
*get, _MAXNODENUM, node, 0, NUM, MAX,,,INTERNAL
*get, _MAXELEMTYPE, etyp, 0, NUM, MAX
*get, _MAXREALCONST, real, 0, NUM, MAX
/gopr
*get,_PCGITER,active,,solu,cgiter
/post1
xmlo,ENCODING,ISO-8859-1
xmlo,parm
/xml,parm,xml
fini
/gopr
*get,_walldone,active,,time,wall
_preptime=(_wallbsol-_wallstrt)*3600
_solvtime=(_wallasol-_wallbsol)*3600
_posttime=(_walldone-_wallasol)*3600
_totaltim=(_walldone-_wallstrt)*3600
/wb,file,end               ! done with WB generated input
