/batch
/config,noeldb,1     ! force off writing results to database
*get,_wallstrt,active,,time,wall
! ANSYS input file written by Workbench version 18.2 RELEASE
! File used for geometry attach: C:\Users\zehir\Desktop\Prosthetic Handv5\Shaft.x_t
/title,Connection_Points_Analysis--Static Structural (B5)
*DIM,_wb_ProjectScratch_dir,string,248
_wb_ProjectScratch_dir(1) = 'C:\Users\zehir\Desktop\_ProjectScratch\Scr2CF1\'
*DIM,_wb_SolverFiles_dir,string,248
_wb_SolverFiles_dir(1) = 'C:\Users\zehir\Desktop\Connection_Points_Analysis_files\dp0\SYS-1\MECH\'
*DIM,_wb_userfiles_dir,string,248
_wb_userfiles_dir(1) = 'C:\Users\zehir\Desktop\Connection_Points_Analysis_files\user_files\'
/com,--- Data in consistent NMM units. See Solving Units in the help system for more information.
/units,MPA
/nopr
/wb,file,start              !  signify a WB generated input file
/prep7
! Turn off shape checking because checks already performed inside WB mesher.
! See help system for more information.
SHPP,OFF,,NOWARN
/nolist
etcon,set             ! allow ANSYS to choose best KEYOP's for 180x elements
/com,*********** Nodes for the whole assembly ***********
nblock,3,,1824
(1i9,3e20.9e3)
        1    1.856440222E-001    5.223159589E-001    1.000000000E+000
        2   -1.734392227E-001   -4.584792253E-001    1.000000000E+000
        3   -1.026446190E+000    8.864351170E-002    1.000000000E+000
        4   -8.761798987E-001    5.328536021E-001    1.000000000E+000
        5   -3.862867468E-001    6.177077660E-001    1.000000000E+000
        6    1.033569974E+000   -6.180032417E-002    1.000000000E+000
        7    8.728940605E-001   -4.956140051E-001    1.000000000E+000
        8    7.085500930E-001    3.064340011E-001    1.000000000E+000
        9   -6.962757211E-001   -2.534379561E-001    1.000000000E+000
       10    3.857344159E-001   -5.572557385E-001    1.000000000E+000
       11    1.856440222E-001    5.223159589E-001    2.000000000E+000
       12   -1.734392227E-001   -4.584792253E-001    2.000000000E+000
       13   -1.026446190E+000    8.864351170E-002    2.000000000E+000
       14   -8.761798987E-001    5.328536021E-001    2.000000000E+000
       15   -3.862867468E-001    6.177077660E-001    2.000000000E+000
       16    1.033569974E+000   -6.180032417E-002    2.000000000E+000
       17    8.728940605E-001   -4.956140051E-001    2.000000000E+000
       18    7.085500930E-001    3.064340011E-001    2.000000000E+000
       19   -6.962757211E-001   -2.534379561E-001    2.000000000E+000
       20    3.857344159E-001   -5.572557385E-001    2.000000000E+000
! ... 1640 like lines cut
/wb,elem,start            !  set before creation of elements
/com,*********** Elements for Body 1 "Part 1" ***********
et,1,186
keyo,1,2,1          ! set full integration on SOLID186
eblock,19,solid,,308
(19i9)
        1        1        1        1        0        0        0        0       20        0        1        2       10      242      243      219      211      460      459
      468      503     1234      471     1166     1167     1659     1185      470      502     1236     1239
        1        1        1        1        0        0        0        0       20        0        2        2      243      242       10       12      252      251       20
      471     1234      503      468      512     1261      536      510      469     1238     1235      501
        1        1        1        1        0        0        0        0       20        0        3       12      252      251       20       22      261      260       30
      512     1261      536      510      545     1280      569      543      511     1264     1262      535
        1        1        1        1        0        0        0        0       20        0        4       22      261      260       30       32      270      269       40
      545     1280      569      543      578     1299      602      576      544     1283     1281      568
        1        1        1        1        0        0        0        0       20        0        5       32      270      269       40       42      279      278       50
      578     1299      602      576      611     1318      635      609      577     1302     1300      601
        1        1        1        1        0        0        0        0       20        0        6       42      279      278       50       52      288      287       60
      611     1318      635      609      644     1337      668      642      610     1321     1319      634
        1        1        1        1        0        0        0        0       20        0        7       52      288      287       60       62      297      296       70
      644     1337      668      642      677     1356      701      675      643     1340     1338      667
        1        1        1        1        0        0        0        0       20        0        8       62      297      296       70       72      306      305       80
      677     1356      701      675      710     1375      734      708      676     1359     1357      700
        1        1        1        1        0        0        0        0       20        0        9       72      306      305       80       82      315      314       90
      710     1375      734      708      743     1394      767      741      709     1378     1376      733
        1        1        1        1        0        0        0        0       20        0       10       82      315      314       90       92      324      323      100
      743     1394      767      741      776     1413      800      774      742     1397     1395      766
! ... 597 like lines cut
!Material Id = {6D2414F8-0A7C-41B0-8BAA-B5C427920FEF}
/wb,elem,end               !  done creating elements
/com,*********** Send User Defined Coordinate System(s) ***********
csys,0
toffst,273.15,  ! Temperature offset from absolute zero
/com,*********** Set Reference Temperature ***********
tref,22.
/wb,mat,start              !  starting to send materials
/com,*********** Send Materials ***********
MP,DENS,1,7.85e-09,	! tonne mm^-3
MP,ALPX,1,1.2e-05,	! C^-1
MP,C,1,434000000,	! mm^2 s^-2 C^-1
MP,KXX,1,60.5,	! tonne mm s^-3 C^-1
MP,RSVX,1,0.00017,	! ohm mm
MP,EX,1,200000,	! tonne s^-2 mm^-1
MP,NUXY,1,0.3,
MP,MURX,1,10000,

/wb,mat,end                !  done sending materials
!************************* Model Summary ********************
!Part 1,	Structural Steel,	matid,	1
!************************* End Model Summary ********************
! get the diagonal of the bounding box. Needed later for other things
*get,_xmin,node,,mnloc,x
*get,_ymin,node,,mnloc,y
*get,_zmin,node,,mnloc,z
*get,_xmax,node,,mxloc,x
*get,_ymax,node,,mxloc,y
*get,_zmax,node,,mxloc,z
_ASMDIAG=(_xmax-_xmin)*(_xmax-_xmin)+(_ymax-_ymin)*(_ymax-_ymin)+(_zmax-_zmin)*(_zmax-_zmin)
_ASMDIAG=SQRT(_ASMDIAG)
/wb,contact,start          !  starting to send contact
/wb,contact,end            !  done creating contacts
/golist
/wb,load,start             !  starting to send loads
/com,*********** Fixed Supports ***********
CMBLOCK,_FIXEDSU,NODE,      106
(8i10)
       211       212       213       214       215       216       217       218
       219       220       221       222       223       224       225       226
       227       228       229       230       231       232       233       234
       235       236       237       238       239       240       430       431
       453       454       455       456       457       458       459       460
      1164      1165      1166      1167      1168      1169      1170      1171
      1172      1173      1174      1175      1176      1177      1178      1179
      1180      1181      1182      1183      1184      1185      1186      1187
      1188      1189      1190      1191      1192      1193      1194      1195
      1196      1197      1198      1199      1200      1201      1202      1203
      1204      1205      1206      1207      1208      1209      1210      1211
      1213      1215      1217      1219      1221      1223      1225      1227
      1629      1630      1632      1653      1654      1655      1656      1657
      1658      1659
cmsel,s,_FIXEDSU
d,all,all
nsel,all
/com,*********** Define Force Using Surface Effect Elements ***********
local,12,0,0.,0.,0.,-0.,0.,0.
csys,0
et,2,154
eblock,10,,,220
(15i9)
      309        2        2        2       12      430      431      432      241     1629     1631     1233     1232
      310        2        2        2       12      421      452      231      239     1620     1212     1211     1228
      311        2        2        2       12      250      241      432      433     1231     1233     1633     1260
      312        2        2        2       12      259      250      433      434     1259     1260     1634     1279
      313        2        2        2       12      268      259      434      435     1278     1279     1635     1298
      314        2        2        2       12      277      268      435      436     1297     1298     1636     1317
      315        2        2        2       12      286      277      436      437     1316     1317     1637     1336
      316        2        2        2       12      295      286      437      438     1335     1336     1638     1355
      317        2        2        2       12      304      295      438      439     1354     1355     1639     1374
      318        2        2        2       12      313      304      439      440     1373     1374     1640     1393
      319        2        2        2       12      322      313      440      441     1392     1393     1641     1412
      320        2        2        2       12      331      322      441      442     1411     1412     1642     1431
      321        2        2        2       12      340      331      442      443     1430     1431     1643     1450
      322        2        2        2       12      349      340      443      444     1449     1450     1644     1469
      323        2        2        2       12      358      349      444      445     1468     1469     1645     1488
      324        2        2        2       12      367      358      445      446     1487     1488     1646     1507
      325        2        2        2       12      376      367      446      447     1506     1507     1647     1526
      326        2        2        2       12      385      376      447      448     1525     1526     1648     1545
      327        2        2        2       12      394      385      448      449     1544     1545     1649     1564
      328        2        2        2       12      403      394      449      450     1563     1564     1650     1583
! ... 201 like lines cut
esel,s,type,,2
keyop,2,2,1                ! Apply load in local coordinate system
keyop,2,7,1                ! Use original area so load is constant in large deformation
keyop,2,11,2               ! Use real and not project area
esel,all

*DIM,_loadvari28x,TABLE,2,1,1,TIME,
! Time values
_loadvari28x(1,0,1) = 0.
_loadvari28x(2,0,1) = 1.
! Load values
_loadvari28x(1,1,1) = 0.
_loadvari28x(2,1,1) = 0.


*DIM,_loadvari28y,TABLE,2,1,1,TIME,
! Time values
_loadvari28y(1,0,1) = 0.
_loadvari28y(2,0,1) = 1.
! Load values
_loadvari28y(1,1,1) = 0.
_loadvari28y(2,1,1) = -0.964728567734474


*DIM,_loadvari28z,TABLE,2,1,1,TIME,
! Time values
_loadvari28z(1,0,1) = 0.
_loadvari28z(2,0,1) = 1.
! Load values
_loadvari28z(1,1,1) = 0.
_loadvari28z(2,1,1) = 0.

/gst,on,on
fini
*get,_numnode,node,0,count
*get,_numelem,elem,0,count
*get, _MAXELEMNUM, elem, 0, NUM, MAX
*get, _MAXNODENUM, node, 0, NUM, MAX
*get, _MAXELEMTYPE, etyp, 0, NUM, MAX
*get, _MAXREALCONST, real, 0, NUM, MAX
/go
/wb,load,end               !  done creating loads
/com,--- Number of total nodes = %_numnode%
/com,--- Number of contact elements = 220
/com,--- Number of spring elements = 0
/com,--- Number of bearing elements = 0
/com,--- Number of solid elements = 308
/com,--- Number of condensed parts = 0
/com,--- Number of total elements = %_numelem%
*get,_wallbsol,active,,time,wall
/com,****************************************************************************
/com,*************************    SOLUTION       ********************************
/com,****************************************************************************
/solu
antype,0                   ! static analysis
eqsl,pcg,1e-8,,,,,,1
cntr,print,1               ! print out contact info and also make no initial contact an error
dmpoption,emat,no             ! Don't combine emat file for DANSYS
dmpoption,esav,no             ! Don't combine esav file for DANSYS
nldiag,cont,iter           ! print out contact info each equilibrium iteration
rescontrol,,none                 ! Do not keep any restart files
/com,****************************************************
/com,******************* SOLVE FOR LS 1 OF 1 ****************
esel,s,type,,2
nsle
sfe,all,1,pres,1,%_loadvari28x%
sfe,all,2,pres,1,%_loadvari28y%
sfe,all,3,pres,1,%_loadvari28z%
nsel,all
esel,all
/nopr
/gopr
nsub,1,1,1
time,1.
outres,erase
outres,all,none
outres,nsol,all
outres,rsol,all
outres,strs,all
outres,epel,all
outres,eppl,all
stabilize,off                   ! Stabilization turned OFF by user
! *********** WB SOLVE COMMAND ***********
! check interactive state
*get,ANSINTER_,active,,int
*if,ANSINTER_,ne,0,then
/eof
*endif
solve
/com *************** Write FE CONNECTORS ********* 
CEWRITE,file,ce,,INTE
/com,****************************************************
/com,*************** FINISHED SOLVE FOR LS 1 *************
*get,_wallasol,active,,time,wall
/nopr
*get,_numnode,node,0,count
*get,_numelem,elem,0,count
*get, _MAXELEMNUM, elem, 0, NUM, MAX
*get, _MAXNODENUM, node, 0, NUM, MAX,,,INTERNAL
*get, _MAXELEMTYPE, etyp, 0, NUM, MAX
*get, _MAXREALCONST, real, 0, NUM, MAX
/gopr
*get,_PCGITER,active,,solu,cgiter
/post1
xmlo,ENCODING,ISO-8859-1
xmlo,parm
/xml,parm,xml
fini
/gopr
*get,_walldone,active,,time,wall
_preptime=(_wallbsol-_wallstrt)*3600
_solvtime=(_wallasol-_wallbsol)*3600
_posttime=(_walldone-_wallasol)*3600
_totaltim=(_walldone-_wallstrt)*3600
/wb,file,end               ! done with WB generated input
